version 2
run Sched1-0-20240319-19:57:38-9988
attr configname Sched1
attr datetime 20240319-19:57:38
attr experiment Sched1
attr inifile omnetpp.ini
attr iterationvars ""
attr iterationvarsf ""
attr measurement ""
attr network Network
attr processid 9988
attr repetition 0
attr replication #0
attr resultdir results
attr runnumber 0
attr seedset 0
param *.nrHP 2
param *.nrMP 2
param *.nrLP 2
param Network.sources[*].sendIaTime "0.5 ms"

vector 0 Network.sink "" ETV
0	16	0.05	50
vector 1 Network.flc "delay vector" ETV
vector 2 Network.flc "result nescalat" ETV
vector 3 Network.flc "res scalat" ETV
vector 4 Network.flc "weight vector" ETV
1	17	0.05	49
2	17	0.05	49
3	17	0.05	9
4	17	0.05	13
0	21	0.1	100
1	22	0.1	75
2	22	0.1	64
3	22	0.1	15
4	22	0.1	28
vector 5 Network.sink "" ETV
vector 6 Network.sink "" ETV
0	41	0.4	2.062747717
0	48	0.45	0.719805758
0	73	0.8	8.462177726
0	92	1.05	15.898095865
0	127	1.4	11.237778657
0	170	2.15	4.135884847
0	184	2.25	25.132178495
0	198	2.35	79.551665433
0	205	2.4	119.338871233
0	218	2.55	39.714802605
0	247	3.1	49.95125271
0	295	4.1	29.505144754
0	300	4.15	64.629838267
0	324	4.45	12.022934159
0	346	4.85	6.361851272
0	358	4.95	1.306996984
0	384	5.25	20.944522038
0	401	5.4	17.304345962
0	425	5.7	40.624656937
0	436	5.75	17.985643291
0	444	5.85	108.50135869
0	467	6.1	49.65925365
0	479	6.2	23.938287613
0	486	6.25	27.810889157
0	561	7.4	13.35420205
0	580	7.65	34.980776974
0	592	7.75	16.877423933
0	600	7.85	47.863079719
0	614	7.95	33.937136306
0	634	8.15	7.886106194
0	641	8.2	38.294527987
0	665	8.5	49.632372584
0	672	8.55	53.341734823
0	708	9.05	24.428528147
0	735	9.5	38.470601334
0	761	9.8	16.580100533
0	777	10	10.329485572
0	784	10.05	3.159051557
0	800	10.25	12.38112987
0	810	10.35	2.940831616
0	824	10.55	26.293386997
0	861	11.1	33.158696558
0	894	11.65	23.251513681
0	904	11.85	9.34588569
0	916	11.95	7.083215483
0	923	12	28.419752271
0	933	12.2	3.054089023
0	944	12.45	14.18050382
0	951	12.5	3.080645702
0	965	12.6	92.985581629
0	981	12.8	1.546387196
0	989	12.9	37.51800454
0	1003	13.1	14.80827358
0	1010	13.15	42.057867744
0	1017	13.2	28.863549531
0	1040	13.45	36.985131398
0	1063	13.8	45.426786257
0	1094	14.35	5.832022724
0	1123	14.7	35.029239855
0	1130	14.75	50.208054115
0	1140	14.85	106.822812945
0	1208	15.95	14.876985876
0	1229	16.1	32.194848607
0	1239	16.2	111.118123995
0	1244	16.25	150.961894597
0	1258	16.35	160.835768605
0	1280	16.55	79.796148706
0	1309	16.9	8.254632632
0	1325	17.1	27.965232398
0	1337	17.2	24.302555892
0	1366	17.65	26.007120499
0	1379	17.8	49.797124053
0	1387	17.9	122.453027751
0	1443	18.9	39.043674816
0	1470	19.35	46.312199309
0	1498	19.75	48.582572543
0	1509	19.9	33.671190887
0	1555	20.8	31.167347551
0	1618	21.55	1.485964361
0	1661	22.1	11.825865033
0	1690	22.35	18.433168722
0	1731	22.8	21.568629569
0	1762	23.15	8.102062558
0	1784	23.35	43.643825239
0	1791	23.4	29.015620579
0	1804	23.55	28.232663967
0	1820	23.95	43.194234194
0	1852	24.45	31.186496626
0	1867	24.6	84.684486525
0	1929	25.7	21.545431584
0	1944	25.85	80.276130643
0	1949	25.9	64.184275836
0	2001	26.8	22.219832543
0	2018	26.95	136.382140387
0	2058	27.45	38.662857246
0	2089	27.9	1.989226556
0	2104	28.15	28.862816296
0	2183	29.3	33.682561294
0	2213	29.6	36.556940245
0	2221	29.7	122.383889305
0	2242	30.05	17.987581383
0	2250	30.15	101.80917906
0	2257	30.2	12.985487633
0	2265	30.3	23.006816857
0	2290	30.65	26.406932088
0	2308	30.85	36.393565926
0	2338	31.25	25.921478817
0	2390	32.25	27.335495072
0	2402	32.35	7.959058648
0	2421	32.5	32.159752092
0	2469	33.3	46.827121929
0	2483	33.4	0.073295967
0	2492	33.45	21.037114909
0	2523	33.8	36.480253064
0	2536	33.95	37.621956143
0	2567	34.4	6.902170357
0	2574	34.45	22.09333482
0	2616	35.15	41.127472667
0	2648	35.65	13.132946151
0	2672	35.95	8.716489282
0	2684	36.05	34.918472836
0	2691	36.1	74.484863531
0	2701	36.2	44.309157757
0	2710	36.25	6.207464775
0	2760	37.25	27.52751402
0	2780	37.45	32.28558406
0	2794	37.65	45.403937152
0	2804	37.75	31.775367571
0	2821	37.9	18.318522628
0	2860	38.55	31.915646651
0	2907	39.3	4.584177747
0	2920	39.45	41.726187831
0	2944	39.75	22.631885035
0	2954	39.85	39.194564419
0	3011	40.5	33.708380339
0	3037	40.9	26.036407039
0	3046	41.05	13.936850296
0	3056	41.15	43.115832898
0	3075	41.3	146.368403438
0	3124	41.75	12.209496154
0	3133	41.8	36.868730847
0	3138	41.85	71.405585067
0	3190	42.55	46.628196853
0	3230	43.15	1.891521946
0	3239	43.2	4.969963777
0	3260	43.35	29.131730092
0	3271	43.4	67.205995258
0	3276	43.45	84.649562865
0	3283	43.5	126.28814304
0	3291	43.6	221.646630851
0	3316	43.95	17.441753744
0	3325	44.1	1.986813156
0	3361	44.7	8.370305105
0	3368	44.75	44.141576477
0	3396	45.15	24.087439372
0	3406	45.35	17.722506009
0	3419	45.5	44.514594903
0	3439	45.8	40.874950593
0	3474	46.65	47.129684933
0	3509	47.3	49.774612857
0	3524	47.45	44.400303399
0	3539	47.6	5.057343933
0	3567	48.1	24.051380638
0	3581	48.3	10.78347462
0	3588	48.35	13.684481908
0	3602	48.45	80.616427377
0	3627	49.1	5.650016995
0	3652	49.45	11.678277764
0	3677	49.7	31.782618876
0	3692	49.85	4.984331245
0	3720	50.15	48.62700993
0	3727	50.2	47.14282807
0	3746	50.45	36.603417528
0	3753	50.5	29.686714253
0	3767	50.7	19.190065229
0	3797	51.5	41.542885052
0	3854	52.25	47.828007882
0	3861	52.3	82.132915036
0	3879	52.4	126.765252186
0	3889	52.5	199.31156591
0	3897	52.6	185.381709475
0	3949	53.2	49.279630478
0	3986	53.85	21.881676406
0	4003	54	17.796740141
0	4020	54.25	29.557448842
0	4027	54.3	64.372510958
0	4032	54.35	78.790406871
0	4050	54.45	56.7924966
0	4055	54.5	80.839470247
0	4060	54.55	102.356204014
0	4075	54.7	72.875544826
0	4092	54.85	8.62789409
0	4107	55	38.224108833
0	4148	55.45	33.757200215
0	4158	55.55	33.829431255
0	4172	55.65	93.475983166
0	4177	55.7	138.660809214
0	4182	55.75	164.212033693
0	4210	56.15	49.197354964
0	4222	56.25	67.205348395
0	4234	56.35	17.042808252
0	4241	56.4	30.833253195
0	4280	56.85	37.95293018
0	4287	56.9	47.990958109
0	4317	57.2	40.031316217
0	4329	57.5	2.55582939
0	4336	57.55	12.516401418
0	4348	57.65	82.722129568
0	4367	57.9	45.550338172
0	4376	57.95	16.949460002
0	4402	58.25	49.247284455
0	4409	58.3	14.716592274
0	4424	58.55	26.793038872
0	4431	58.6	33.303991365
0	4462	58.95	26.611849965
0	4472	59.05	120.343858279
0	4479	59.1	7.758423035
0	4491	59.2	38.78180707
0	4516	59.45	39.435640635
0	4532	59.55	102.467297487
0	4539	59.6	120.142229923
0	4565	59.9	27.723720127
0	4572	59.95	34.415222904
0	4600	60.65	30.847332441
0	4608	60.75	28.749223344
0	4637	61	24.147979911
0	4677	61.6	22.791087996
0	4687	61.7	32.52919568
0	4698	61.85	45.297434678
0	4732	62.25	15.530038954
0	4758	62.55	17.01732889
0	4763	62.6	59.157316522
0	4816	63.55	34.168860599
0	4845	64.1	30.479717497
0	4857	64.4	24.634204705
0	4871	64.5	80.218013378
0	4883	64.6	93.389731774
0	4895	64.8	39.280004748
0	4912	64.95	35.362240118
0	4933	65.2	9.510433823
0	4986	66.15	14.145856607
0	5005	66.3	48.390176085
0	5010	66.35	90.158534093
0	5024	66.45	93.568451242
0	5044	66.65	10.676146969
0	5078	67.25	40.536708509
0	5087	67.3	10.248216152
0	5097	67.4	81.451757743
0	5108	67.55	33.668957545
0	5122	67.65	88.415222471
0	5136	67.75	53.053027102
0	5143	67.8	86.236066642
0	5167	68.1	16.776056672
0	5182	68.25	22.389614873
0	5201	68.4	27.252907311
0	5216	68.55	31.279871447
0	5234	68.65	61.042012969
0	5241	68.7	92.104973709
0	5256	68.85	25.057969083
0	5364	70.65	43.323235349
0	5380	70.75	95.276909852
0	5390	70.85	25.158300045
0	5419	71.4	28.853799993
0	5433	71.5	99.82700358
0	5443	71.6	87.630444014
0	5464	71.95	1.730723075
0	5489	72.4	47.240875509
0	5505	72.5	25.76115868
0	5527	72.8	29.432449712
0	5562	73.25	32.681056668
0	5577	73.4	50.289919999
0	5587	73.6	36.036117909
0	5599	73.7	47.388753618
0	5608	73.85	48.701989664
0	5658	74.95	1.46387649
0	5668	75.05	36.944624898
0	5728	75.95	32.194091498
0	5762	76.55	46.976226491
0	5769	76.6	36.56052836
0	5826	77.45	22.084500913
0	5843	77.6	36.306605072
0	5852	77.65	19.20933109
0	5866	77.85	43.548690319
0	5876	77.95	35.783850409
0	5888	78.05	62.009270227
0	5900	78.15	26.274287012
0	5923	78.5	27.305512596
0	5933	78.6	14.784265665
0	5959	79	17.173165011
0	5964	79.05	50.170909732
0	5982	79.25	35.714991846
0	6020	79.85	34.436319491
0	6051	80.4	8.717300029
0	6061	80.5	67.096381464
0	6068	80.55	34.449875304
0	6075	80.6	35.500636282
0	6092	80.85	37.784591174
0	6099	80.9	65.299287481
0	6104	80.95	67.41201346
0	6123	81.1	27.62945266
0	6150	81.35	4.092713312
0	6188	82.25	48.891057282
0	6203	82.4	49.214555811
0	6222	82.65	38.158903606
0	6246	83.05	36.590517645
0	6265	83.3	8.637668108
0	6274	83.35	45.723645895
0	6286	83.45	132.698135587
0	6296	83.55	102.939185643
0	6331	84.1	36.394822034
0	6336	84.15	72.954512279
0	6352	84.45	37.874778308
0	6366	84.65	35.011606375
0	6379	84.8	28.615875345
0	6443	85.8	37.209585208
0	6454	85.95	45.455040982
0	6472	86.15	29.892491519
0	6497	86.5	2.286582639
0	6510	86.65	71.730629137
0	6542	87.15	6.50202998
0	6582	87.65	35.46665709
0	6592	87.75	120.115770584
0	6638	88.25	49.548622657
0	6645	88.3	50.597516895
0	6653	88.4	103.71982309
0	6660	88.45	25.504638469
0	6686	88.65	4.42932005
0	6695	88.7	15.115206034
0	6707	88.8	110.841196711
0	6719	88.9	47.236006048
0	6742	89.15	17.693048227
0	6754	89.35	46.605702419
0	6769	89.5	60.200937651
0	6795	89.9	2.441122275
0	6800	89.95	51.087684986
0	6814	90.05	22.295251815
0	6821	90.1	16.255818096
0	6834	90.35	18.939047193
0	6863	90.8	24.67469103
0	6868	90.85	66.166879165
0	6888	91.35	15.932613926
0	6904	91.65	25.428286196
0	6923	91.9	27.004955177
0	6937	92.1	23.798521803
0	6949	92.2	109.032616221
0	6961	92.3	97.690921823
0	7035	93.4	49.088269298
0	7060	93.85	10.942257814
0	7088	94.35	28.692376934
0	7107	94.6	34.493323392
0	7143	95.1	48.468839152
0	7150	95.15	34.029516131
0	7221	96.3	7.963034621
0	7233	96.4	0.06320178
0	7250	96.55	11.523650438
0	7324	97.75	27.405623937
0	7342	97.95	30.297406713
0	7368	98.25	40.152612721
0	7375	98.3	36.354681695
0	7385	98.4	48.042740957
0	7397	98.5	127.83195213
0	7419	98.7	43.113895195
0	7429	98.8	41.221204091
0	7462	99.35	32.464502493
0	7474	99.45	17.907559823
0	7501	99.9	97.781464116
0	7510	99.95	4.466703106
0	7545	100.3	36.414975923
0	7652	102.05	29.425564448
0	7676	102.35	46.074584523
0	7698	102.65	41.193498094
0	7720	102.95	49.826404755
0	7740	103.15	30.956676698
0	7772	103.65	2.736179607
0	7796	103.95	49.604196066
0	7812	104.15	32.754460866
0	7829	104.4	29.617827479
0	7843	104.8	43.753396283
0	7856	104.95	22.184400444
0	7887	105.6	5.286029787
0	7916	106.35	32.132243709
0	7925	106.5	23.247573018
0	7953	106.7	18.888745901
0	7967	106.8	45.072804285
0	7972	106.85	52.610161424
0	7990	107.05	12.008028437
0	8007	107.2	33.54179015
0	8051	107.8	20.421324419
0	8087	108.5	36.394313731
0	8099	108.8	39.599704013
0	8114	108.95	32.962760078
0	8165	109.7	23.778185879
0	8254	110.85	39.632557678
0	8259	110.9	78.649575929
0	8264	110.95	109.473545789
0	8273	111	20.531023008
0	8283	111.1	58.97579555
0	8291	111.2	41.448310227
0	8305	111.4	32.249165687
0	8313	111.5	36.071222794
0	8429	113.2	26.502971451
0	8444	113.35	27.17878086
0	8456	113.45	116.069454851
0	8463	113.5	86.357064547
0	8478	113.65	33.463637427
0	8490	113.75	97.155608374
0	8503	113.9	9.714098936
0	8536	114.45	2.656730703
0	8550	114.55	44.121711039
0	8585	114.9	20.502687622
0	8595	115	105.29869074
0	8615	115.3	46.506151974
0	8647	115.6	37.014482079
0	8654	115.65	71.973084311
0	8659	115.7	68.078993361
0	8726	116.75	17.670556178
0	8748	117.15	46.308681328
0	8755	117.2	23.143705608
0	8767	117.3	17.433118119
0	8775	117.4	107.779065523
0	8816	118.25	14.721512103
0	8868	118.75	12.959318154
0	8886	118.85	35.049725099
0	8900	118.95	9.112332752
0	8912	119.05	80.770392173
0	8941	119.4	20.640895868
0	8954	119.55	27.514956797
0	8967	119.7	15.861305446
0	8977	119.8	32.616208486
0	8999	120	30.739754929
0	9016	120.25	2.354349209
0	9029	120.4	115.848077288
0	9063	120.7	39.65496526
0	9072	120.75	2.243965243
0	9079	120.8	1.991203376
0	9102	121.05	5.410123471
0	9107	121.1	52.733037419
0	9127	121.6	2.034998265
0	9141	121.8	94.993900933
0	9165	122.1	2.014060531
0	9186	122.45	47.704383504
0	9204	122.65	11.590009182
0	9244	123.05	11.135667752
0	9251	123.1	9.846037804
0	9295	123.5	38.278210651
0	9323	123.9	9.994025219
0	9338	124.05	61.633680904
0	9373	124.5	37.140507516
0	9392	124.95	18.136449712
0	9406	125.15	19.105947218
0	9419	125.3	72.657510405
0	9454	125.95	7.610938683
0	9472	126.15	17.602004674
0	9488	126.35	39.832561211
0	9498	126.45	123.105181648
0	9509	126.6	40.562309774
0	9521	126.7	139.870153471
0	9526	126.75	140.570403372
0	9535	126.8	48.270311377
0	9540	126.85	77.20384314
0	9548	126.95	6.736277835
0	9566	127.25	49.120764438
0	9590	127.55	42.411731376
0	9616	127.95	28.027081715
0	9621	128	68.278326456
0	9677	129.1	16.474888141
0	9689	129.4	27.572561123
0	9705	129.7	38.125243291
0	9720	129.85	47.679665542
0	9732	129.95	25.714830611
0	9737	130	64.546162274
0	9744	130.05	34.925221781
0	9780	130.65	28.184159359
0	9815	131	37.61652031
0	9822	131.05	12.743916181
0	9841	131.3	4.528264397
0	9900	132.25	29.235441104
0	9919	132.4	37.360389834
0	9926	132.45	30.430061181
0	9965	132.9	18.507928439
0	10005	133.5	29.583269141
0	10010	133.55	78.242939973
0	10022	133.75	29.619705052
0	10037	133.9	40.965940587
0	10046	134.05	46.859356633
0	10054	134.15	19.757025278
0	10069	134.3	49.496280802
0	10079	134.4	136.963987025
0	10084	134.45	166.55673685
0	10091	134.5	212.808564626
0	10096	134.55	89.520078137
0	10106	134.75	27.1398561
0	10123	134.9	102.3923551
0	10146	135.35	36.437156804
0	10154	135.45	41.752266647
0	10177	135.7	1.168496421
0	10214	136.25	20.391838273
0	10252	136.75	34.403641734
0	10266	136.85	91.966779828
0	10285	137	48.553697203
0	10290	137.05	97.649996712
0	10344	137.65	49.921664749
0	10362	137.75	114.850837702
0	10371	137.8	132.019245114
0	10385	137.9	22.879592325
0	10395	138	117.890230708
0	10405	138.1	132.364321188
0	10410	138.15	95.695560574
0	10425	138.3	36.315884446
0	10459	138.7	10.874370427
0	10476	138.95	36.71621823
0	10510	139.35	32.32115509
0	10519	139.4	60.103316202
0	10529	139.5	140.597146309
0	10536	139.55	184.799211543
0	10544	139.65	111.515706978
0	10558	139.75	26.585704812
0	10586	140.05	21.550309174
0	10601	140.2	33.79037123
0	10613	140.5	13.377335481
0	10643	140.9	21.488344542
0	10650	140.95	19.025321675
0	10660	141.15	7.903949694
0	10672	141.25	45.090974687
0	10685	141.4	24.09191106
0	10722	141.85	38.160693155
0	10749	142.4	11.955183466
0	10759	142.5	24.709266227
0	10769	142.6	27.306217967
0	10827	143.5	29.641595628
0	10839	143.6	95.613226069
0	10849	143.7	29.387265277
0	10867	143.9	21.908973915
0	10888	144.25	47.873794073
0	10897	144.3	17.905992138
0	10910	144.45	19.432462747
0	10937	144.8	45.680235746
0	10977	145.5	35.451305168
0	10995	145.7	37.988659122
0	11007	145.8	23.865347523
0	11024	145.95	49.555422824
0	11044	146.15	28.48033686
0	11077	146.6	28.074290984
0	11091	146.8	20.573220967
0	11104	146.95	10.177627478
0	11112	147.05	34.775360742
0	11124	147.15	71.575908219
0	11135	147.3	10.374183518
0	11164	147.85	40.960716956
0	11182	148.05	23.635295191
0	11231	148.9	36.626976013
0	11246	149.05	18.880986841
0	11269	149.3	17.140334549
0	11290	149.55	33.548112918
0	11301	149.8	26.943922301
0	11315	150	40.334058123
0	11350	150.65	18.098813074
0	11363	150.8	49.316041609
0	11380	150.95	45.632405233
0	11399	151.1	42.95053373
0	11417	151.3	39.361943461
0	11427	151.4	42.950449061
0	11470	152.05	47.469096268
0	11479	152.2	41.771237603
0	11493	152.3	96.051913582
0	11498	152.35	95.339521887
0	11563	153.3	49.731701639
0	11603	154	29.166031361
0	11611	154.1	102.902986182
0	11650	154.75	49.982374801
0	11679	155.2	45.765536876
0	11696	155.35	3.446405863
0	11737	155.9	4.120437724
0	11749	156	51.588521273
0	11782	156.55	36.15229483
0	11794	156.65	54.342588074
0	11808	156.75	94.95361363
0	11815	156.8	55.071569544
0	11825	156.9	103.904481251
0	11830	156.95	78.269758729
0	11844	157.15	45.423183407
0	11862	157.35	31.799375254
0	11895	157.9	32.64151306
0	11902	157.95	20.204504979
0	11922	158.25	32.305991981
0	11941	158.5	33.571003269
0	11949	158.6	36.168543052
0	11983	159.2	23.977025061
0	11995	159.3	35.394819603
0	12002	159.35	39.332089257
0	12010	159.45	13.557127107
0	12018	159.55	14.456466831
0	12034	159.85	23.852815275
0	12048	159.95	35.796508806
0	12053	160	57.700133201
0	12072	160.35	38.443864693
0	12083	160.5	39.036820233
0	12137	161.3	27.716896702
0	12167	161.6	37.902597514
0	12197	161.9	8.448324095
0	12218	162.25	15.248977872
0	12236	162.45	12.00269409
0	12258	162.95	1.749181953
0	12277	163.2	23.070226227
0	12289	163.3	13.208353476
0	12313	163.7	30.448116554
0	12326	163.85	12.241309858
0	12375	164.6	47.867226767
0	12382	164.65	30.815532655
0	12396	165.05	21.263260962
0	12414	165.25	75.486187371
0	12429	165.5	24.41731509
0	12436	165.55	36.493426515
0	12462	166.05	40.208867592
0	12472	166.15	19.914353714
0	12506	166.55	39.346146008
0	12518	166.65	107.878905077
0	12528	166.75	77.477326963
0	12539	166.9	32.405196429
0	12553	167	1.455401138
0	12580	167.35	9.9557848
0	12592	167.45	89.732401105
0	12606	167.55	80.151494961
0	12622	167.85	46.406333801
0	12627	167.9	91.348995989
0	12644	168.05	13.303113126
0	12676	168.65	38.976212468
0	12688	168.75	96.481474324
0	12724	169.05	29.412066158
0	12760	169.45	41.35047735
0	12783	169.7	30.834288449
0	12802	169.95	15.646956013
0	12828	170.25	49.007623933
0	12838	170.35	17.42717563
0	12863	170.7	30.646780398
0	12915	171.6	14.960290346
0	12936	172.15	9.473617165
0	13012	173.05	1.930872024
0	13023	173.2	14.586673326
0	13028	173.25	57.281207939
0	13043	173.5	8.158600262
0	13059	173.7	38.10880869
0	13072	173.85	33.960033058
0	13079	173.9	79.193613637
0	13084	173.95	61.115326951
0	13094	174.15	34.851345674
0	13119	174.5	11.778847173
0	13135	174.7	21.345769993
0	13161	175	51.580350557
0	13185	175.2	28.650647718
0	13192	175.25	20.419138074
0	13231	175.6	47.93121923
0	13241	175.7	140.950185103
0	13248	175.75	184.149797109
0	13280	176.15	19.151935381
0	13293	176.3	36.665867522
0	13308	176.45	0.677863309
0	13318	176.55	35.24639542
0	13334	176.85	70.88701755
0	13352	177.15	7.36196452
0	13361	177.2	12.606352014
0	13377	177.3	27.149429776
0	13385	177.4	121.439386504
0	13411	177.7	22.124971286
0	13429	177.8	90.77318516
0	13439	177.9	134.355968936
0	13502	178.75	4.848908698
0	13512	178.85	2.014348717
0	13519	178.9	14.745242624
0	13527	179	46.991328804
0	13534	179.05	39.339916875
0	13545	179.3	35.600834872
0	13561	179.5	81.896759792
0	13571	179.6	163.984485109
0	13586	179.85	0.13357423
0	13610	180.15	18.236077456
0	13620	180.25	32.442453042
0	13651	180.6	37.478167144
0	13663	180.9	23.516392401
0	13674	181.15	31.453723966
0	13693	181.4	42.797839451
0	13719	182	39.383328806
0	13732	182.15	44.456611011
0	13741	182.2	8.537933617
0	13746	182.25	55.320957678
0	13758	182.45	39.886005601
0	13801	183	32.417853221
0	13841	183.7	20.970722483
0	13873	184.2	43.639388377
0	13884	184.25	33.618733996
0	13894	184.35	38.822775492
0	13906	184.45	49.52325396
0	13950	185.45	2.389530187
0	13958	185.55	9.02277207
0	13977	185.9	86.45601043
0	13984	185.95	102.276832956
0	13997	186.2	32.555336257
0	14025	186.5	44.200858709
0	14037	186.6	27.172335563
0	14060	186.85	41.890097459
0	14093	187.3	19.425673108
0	14106	187.45	12.442094883
0	14125	187.6	47.066176395
0	14147	188	44.935927485
0	14167	188.5	35.962936531
0	14174	188.55	42.755807619
0	14181	188.6	34.19538809
0	14197	188.7	95.260069349
0	14202	188.75	71.938132048
0	14214	188.95	46.277339259
0	14229	189.2	97.008599125
0	14275	190	29.073708712
0	14285	190.1	18.181884046
0	14302	190.35	2.298918157
0	14310	190.45	12.544570163
0	14324	190.65	11.976895383
0	14350	191.15	39.449787165
0	14355	191.2	53.382249011
0	14367	191.3	41.076394269
0	14416	191.95	39.071647766
0	14464	192.65	26.83617655
0	14473	192.7	15.947725978
0	14485	192.8	85.901605509
0	14501	192.9	61.332157924
0	14506	192.95	104.016872302
0	14559	193.5	42.911026383
0	14564	193.55	91.230371333
0	14583	193.7	40.555093738
0	14594	193.85	0.254054745
0	14613	194.3	35.872011949
0	14683	195.4	44.079203733
0	14709	195.6	24.965358593
0	14740	196.05	28.451913808
0	14750	196.15	98.796859284
0	14804	196.85	26.999145078
0	14834	197.35	13.855081275
0	14853	197.6	17.076861953
0	14882	198.05	14.898965196
0	14917	198.7	27.941156389
0	14929	198.9	13.963040687
0	14945	199.2	38.959358639
0	14957	199.3	28.017849607
0	14972	199.55	48.999827431
0	14986	199.85	3.941955081
0	15008	200.15	35.427198643
0	15025	200.4	29.695846326
0	15044	200.75	0.760532085
0	15072	201.25	32.876265208
0	15096	201.45	2.236533759
0	15133	202	38.661655054
0	15147	202.1	93.508432913
0	15159	202.2	14.23514061
0	15179	202.4	4.259784974
0	15200	202.75	37.521951116
0	15232	203.25	8.307046915
0	15247	203.4	20.092564886
0	15282	203.85	31.034424267
0	15292	203.95	110.008572405
0	15310	204.15	27.236181061
0	15324	204.25	122.526477781
0	15329	204.3	146.349384232
0	15334	204.35	142.339611223
0	15353	204.7	12.45339534
0	15367	204.8	19.397329744
0	15389	205	27.778494091
0	15442	205.95	27.461857985
0	15449	206	14.331192717
0	15464	206.25	24.83292168
0	15475	206.5	20.261241449
0	15484	206.65	30.027422718
0	15493	206.8	29.077248815
0	15509	207.1	22.636761028
0	15557	207.8	14.45259748
0	15564	207.85	9.134219478
0	15580	208.05	46.041391986
0	15587	208.1	21.133594987
0	15612	208.35	12.83936248
0	15619	208.4	44.724231047
0	15651	208.7	16.740150626
0	15678	208.95	49.108772752
0	15707	209.2	17.286265671
0	15744	209.65	26.211228496
0	15753	209.8	36.417900984
0	15803	210.6	21.546541287
0	15818	210.85	19.75916655
0	15854	211.55	2.85550259
0	15874	211.85	32.608806578
0	15899	212.4	14.00876271
0	15915	212.6	59.432987095
0	15922	212.65	71.937124057
0	15927	212.7	80.851275914
0	15936	212.75	22.979471708
0	15946	212.85	121.805084382
0	15982	213.45	13.170304618
0	16052	215.25	48.911237287
0	16069	215.4	24.690002882
0	16074	215.45	59.726883753
0	16087	215.7	43.63337193
0	16097	215.8	125.434826987
0	16119	216.2	17.599830848
0	16134	216.35	16.431332608
0	16165	216.7	33.601448647
0	16185	217	42.934933927
0	16197	217.1	77.223001657
0	16205	217.2	47.921366787
0	16224	217.35	69.081954607
0	16238	217.45	158.286914235
0	16248	217.55	194.961299444
0	16275	217.8	29.184985548
0	16300	218.05	45.696167362
0	16330	218.35	28.262974027
0	16340	218.45	21.494651931
0	16348	218.55	21.805536213
0	16357	218.7	43.262844918
0	16367	218.8	30.553443939
0	16372	218.85	68.012959158
0	16401	219.4	24.736738383
0	16421	219.7	36.590717001
0	16495	221	37.956172036
0	16528	221.65	1.389267254
0	16560	222.15	16.094567346
0	16574	222.45	16.871042576
0	16604	222.75	34.376271184
0	16619	223	32.10130716
0	16638	223.15	90.478824787
0	16649	223.2	33.865495852
0	16661	223.3	50.49421862
0	16692	223.95	27.762812433
0	16768	224.95	1.267035469
0	16780	225.25	24.702540794
0	16854	226.55	49.953723404
0	16866	226.65	61.316129623
0	16876	226.75	118.765289587
0	16884	226.85	5.00348101
0	16891	226.9	12.978561001
0	16909	227.1	87.894746331
0	16916	227.15	5.705877745
0	16935	227.4	6.888819876
0	16946	227.55	32.519821704
0	16958	227.65	121.297265105
0	16970	227.75	63.046502352
0	16986	227.85	53.735764543
0	16991	227.9	59.76909189
0	17052	228.85	17.264304199
0	17098	229.35	19.052552527
0	17105	229.4	30.500655015
0	17123	229.6	49.110333115
0	17139	229.8	11.378381993
0	17146	229.85	22.247708052
0	17167	230.1	25.743775584
0	17181	230.2	74.36202383
0	17192	230.25	105.591119954
0	17202	230.35	143.097637422
0	17237	230.9	46.880407592
0	17252	231.05	4.17624308
0	17265	231.3	49.56027674
0	17296	231.95	26.729682989
0	17305	232.1	13.871579319
0	17312	232.15	17.879966206
0	17353	232.9	15.875068164
0	17360	232.95	29.680898372
0	17386	233.25	24.220128499
0	17396	233.35	44.487682246
0	17412	233.65	20.31471007
0	17462	234.35	38.440768655
0	17480	234.45	45.315142709
0	17514	234.95	8.300725704
0	17539	235.3	40.250503657
0	17556	235.45	12.271878341
0	17593	235.8	21.664562248
0	17603	235.9	71.457014521
0	17615	236	2.703149446
0	17654	236.65	37.975041395
0	17677	237.1	7.465301419
0	17687	237.2	43.089569397
0	17692	237.25	72.605686475
0	17718	237.75	45.594417906
0	17733	237.9	7.453891181
0	17766	238.25	1.651378996
0	17790	238.85	11.101236762
0	17800	238.95	48.121494125
0	17811	239	20.274446419
0	17852	239.55	11.215109606
0	17889	240.1	1.317672491
0	17903	240.2	75.747565736
0	17910	240.25	1.035166438
0	17921	240.4	33.262301472
0	17933	240.5	0.020326411
0	17942	240.55	8.174696936
0	17954	240.65	30.970260077
0	18049	242.1	47.713461422
0	18195	244.8	17.879148856
0	18208	244.95	15.060311493
0	18219	245.2	34.679361697
0	18248	245.55	48.315900027
0	18273	245.8	45.385525076
0	18280	245.85	40.484746773
0	18311	246.2	36.896458316
0	18325	246.3	34.638456736
0	18342	246.65	9.281358796
0	18352	246.75	81.687369624
0	18369	247	1.387064628
0	18385	247.1	78.643635521
0	18418	247.55	6.414934972
0	18477	248.3	37.674030793
0	18484	248.35	83.202092726
0	18497	248.6	26.290143346
0	18512	249.05	14.810452026
0	18536	249.45	25.915620289
0	18560	249.85	36.82556495
0	18570	249.95	27.467015855
0	18585	250.1	158.340531116
0	18603	250.5	1.689150964
0	18610	250.55	43.495992172
0	18628	250.75	57.615944292
0	18638	250.85	112.525329741
0	18643	250.9	76.964228255
0	18658	251.05	65.134888046
0	18675	251.2	21.219435335
0	18687	251.3	37.524726132
0	18696	251.35	11.857682343
0	18759	252	37.908740549
0	18769	252.1	135.142626876
0	18785	252.3	26.983545553
0	18804	252.55	35.082680003
0	18819	252.8	21.86441585
0	18838	253.05	37.331191112
0	18854	253.35	25.165492993
0	18873	253.6	25.277104289
0	18883	253.8	2.560593428
0	18898	253.95	7.005255184
0	18994	255.55	39.307375626
0	19006	255.65	35.833908998
0	19025	255.9	37.984955964
0	19040	256.05	61.583844261
0	19047	256.1	50.631446194
0	19052	256.15	83.804600527
0	19085	256.9	33.865183477
0	19105	257.2	11.070800745
0	19220	258.85	39.844512524
0	19228	258.95	116.053975589
0	19261	259.5	37.328146754
0	19286	259.85	39.290184654
0	19326	260.55	3.268045119
0	19336	260.75	1.752169634
0	19357	261.1	72.113049046
0	19383	261.3	13.938603171
0	19391	261.4	112.815750869
0	19415	261.9	20.086638592
0	19428	262.25	32.466031034
0	19445	262.4	72.409282289
0	19480	263.05	48.283163969
0	19489	263.2	5.643010542
0	19502	263.35	31.23242225
0	19514	263.45	69.436523365
0	19525	263.7	36.22160119
0	19557	264	14.464952083
0	19577	264.2	19.813618
0	19591	264.3	9.26626772
0	19600	264.35	21.676608418
0	19635	264.9	16.693193061
0	19642	264.95	31.910330033
0	19652	265.15	22.647924083
0	19715	266.1	32.98271623
0	19727	266.3	17.382592051
0	19798	267.55	6.153179745
0	19834	267.95	10.367076033
0	19855	268.1	30.393542638
0	19862	268.15	61.72224696
0	19898	268.65	32.078557969
0	19916	268.85	0.097218599
0	19930	268.95	90.15316492
0	19946	269.05	187.013395653
0	19951	269.1	216.146536449
0	19969	269.3	44.262142466
0	20006	269.85	3.602767406
0	20018	270.05	28.569962654
0	20063	270.7	41.516679173
0	20068	270.75	76.760639
0	20076	270.85	32.657515677
0	20093	271	46.032345381
0	20106	271.15	33.203287517
0	20113	271.2	12.665686552
0	20129	271.5	35.261653266
0	20168	272.05	41.334172071
0	20180	272.15	89.34239115
0	20237	272.8	48.975446781
0	20245	272.9	134.803332399
0	20253	273	11.163640038
0	20275	273.3	45.967011258
0	20294	273.65	47.622638059
0	20328	274.25	35.949502368
0	20357	274.7	38.720432268
0	20402	275.55	10.582499614
0	20425	275.8	19.085593488
0	20442	275.95	11.342567014
0	20480	276.25	23.637853665
0	20495	276.4	44.620630553
0	20555	277.3	38.338789172
0	20565	277.4	105.905260151
0	20593	278	42.421950744
0	20661	278.9	9.079615104
0	20692	279.35	5.927103766
0	20717	279.6	46.93929386
0	20724	279.65	52.91252277
0	20729	279.7	95.073570118
0	20782	280.45	43.633168504
0	20818	281.15	36.061557688
0	20826	281.25	39.339206448
0	20833	281.3	48.738076245
0	20842	281.45	35.696150724
0	20877	282.1	3.384347832
0	20898	282.25	18.483467483
0	20928	282.65	42.761383992
0	20952	282.95	25.019063776
0	20969	283.1	30.979413682
0	21007	284.1	10.167831521
0	21014	284.15	33.221425471
0	21028	284.35	28.121445996
0	21043	284.5	78.613862871
0	21062	284.75	48.597371218
0	21069	284.8	24.722924072
0	21090	285.05	16.859473849
0	21128	285.55	15.863739328
0	21143	285.7	72.569418131
0	21183	286.4	35.383875563
0	21210	287.05	11.352687104
0	21218	287.15	11.091093168
0	21252	287.55	34.944959775
0	21259	287.6	17.151360576
0	21283	287.8	41.641356313
0	21320	288.15	8.823600403
0	21332	288.25	4.245059599
0	21370	288.75	34.036687207
0	21399	289.1	42.031785959
0	21432	289.55	18.695780335
0	21451	289.7	26.44216457
0	21479	290.1	9.265218684
0	21520	290.75	7.416590886
0	21534	290.85	98.923437438
0	21539	290.9	132.173251548
0	21553	291	46.499722571
0	21583	291.4	24.753639165
0	21605	291.6	40.759940576
0	21616	291.75	16.561800563
0	21624	291.85	7.374402872
0	21632	291.95	25.657909254
0	21643	292.1	38.970726476
0	21648	292.15	87.112390805
0	21662	292.35	28.253102161
0	21671	292.4	19.766800246
0	21683	292.5	116.113283317
0	21690	292.55	85.651722267
0	21700	292.65	0.189520721
0	21728	293.05	29.956017318
0	21746	293.25	6.910879208
0	21761	293.4	7.795924267
0	21773	293.7	34.880452944
0	21780	293.75	23.479411597
0	21796	293.85	56.562858537
0	21803	293.9	101.861538032
0	21847	294.5	22.719778415
0	21911	295.3	10.221151871
0	21923	295.4	60.795592512
0	21937	295.5	77.946128798
0	21949	295.6	157.526238885
0	21965	295.7	20.602580979
0	22000	296.15	10.920159767
0	22012	296.25	106.944635193
0	22019	296.3	21.058287873
0	22031	296.4	83.928019915
0	22041	296.5	63.886995891
0	22091	297.3	43.618346527
0	22110	297.45	35.935918548
0	22124	297.55	126.804128371
0	22132	297.65	210.170798038
0	22153	297.8	1.071790607
0	22165	297.9	7.141220444
0	22180	298.05	26.855803929
0	22200	298.25	28.919331977
0	22212	298.35	19.607869609
0	22225	298.5	9.953565482
0	22240	298.75	28.894536016
0	22254	298.85	19.507451098
0	22261	298.9	54.339112731
0	22275	299	2.228917569
0	22301	299.4	6.091967818
0	22339	300	38.410298726
0	22376	300.75	45.169991553
0	22390	300.85	29.446724087
0	22409	301	15.421371449
0	22416	301.05	28.311320263
0	22436	301.25	9.598408522
0	22452	301.35	45.632881997
0	22462	301.45	107.125119916
0	22482	301.65	7.796517137
0	22523	302.3	26.665224682
0	22551	302.9	31.620940604
0	22561	303	105.465251337
0	22571	303.1	1.713946212
0	22594	303.35	23.994771343
0	22615	303.9	23.675565894
0	22627	304.1	17.333451521
0	22658	304.45	45.767314908
0	22679	304.9	1.664835098
0	22688	305.05	47.934552456
0	22721	305.7	7.336260417
0	22733	305.8	60.727947376
0	22743	305.9	13.778191335
0	22773	306.3	17.901730197
0	22813	306.8	44.795331477
0	22834	307.15	45.706026688
0	22846	307.25	131.319561191
0	22858	307.35	183.728373411
0	22863	307.4	110.513723819
0	22879	307.6	33.35226229
0	22895	307.9	0.577475973
0	22911	308.1	45.639235565
0	22959	309.5	39.229098539
0	22976	309.65	7.259898336
0	22981	309.7	50.557112826
0	23006	310.05	87.128681007
0	23033	310.5	44.475118588
0	23045	310.7	36.259123699
0	23052	310.75	3.79407417
0	23065	310.9	9.538580097
0	23083	311.2	38.855287131
0	23088	311.25	58.734005653
0	23130	311.85	2.204196879
0	23153	312.2	21.863568453
0	23169	312.4	33.646956073
0	23182	312.55	29.498510658
0	23207	312.9	2.400601104
0	23227	313.3	49.994489334
0	23245	313.6	10.298843497
0	23267	313.8	13.339194553
0	23272	313.85	51.475369018
0	23286	313.95	59.605102839
0	23305	314.2	49.398589082
0	23312	314.25	3.045628984
0	23319	314.3	48.132810851
0	23327	314.4	35.330502564
0	23334	314.45	0.901493135
0	23372	315.05	9.268264824
0	23414	315.55	38.865797471
0	23431	315.7	62.246237639
0	23438	315.75	100.031312082
0	23450	315.85	44.663900907
0	23484	316.35	28.070872671
0	23509	316.7	23.560962676
0	23534	317.05	11.600063298
0	23544	317.15	49.304672706
0	23554	317.25	107.040826291
0	23563	317.4	36.813780242
0	23570	317.45	43.818912483
0	23602	317.75	40.710296313
0	23625	318	59.066830543
0	23632	318.05	37.990776404
0	23663	318.6	8.330251005
0	23695	319.1	39.864623572
0	23711	319.3	34.645797713
0	23727	319.5	7.80722691
0	23739	319.6	85.076592173
0	23746	319.65	106.663508776
0	23751	319.7	77.844455137
0	23771	320	30.891105573
0	23779	320.1	3.443952337
0	23837	321	33.303382974
0	23849	321.1	105.724031147
0	23885	321.6	47.937122622
0	23897	321.7	1.229128232
0	23913	321.9	15.80415462
0	23920	321.95	6.19213161
0	23948	322.35	0.015829316
0	23960	322.45	38.989421429
0	23967	322.5	64.714770799
0	23972	322.55	79.174327416
0	23991	322.8	30.15710817
0	24003	322.9	20.487580852
0	24035	323.6	15.04302229
0	24047	323.7	94.758376228
0	24080	324.25	37.69917508
0	24105	324.5	21.324740628
0	24112	324.55	31.435196722
0	24129	324.7	38.666650218
0	24162	325.15	8.76052755
0	24169	325.2	23.368803482
0	24179	325.4	30.83703734
0	24196	325.75	33.434574593
0	24203	325.8	0.016477143
0	24220	325.95	64.657720949
0	24236	326.15	44.685688634
0	24251	326.3	5.712487803
0	24266	326.55	6.65305428
0	24283	326.7	22.814214128
0	24299	326.8	53.319583146
0	24335	327.2	24.600048996
0	24362	327.65	30.049750862
0	24397	328.2	31.262733679
0	24417	328.5	10.767253419
0	24424	328.55	39.057899937
0	24449	328.8	34.78214071
0	24475	329.1	17.249397629
0	24530	329.85	1.093042041
0	24546	330.05	98.641898206
0	24562	330.35	24.145088371
0	24570	330.45	36.813658132
0	24582	330.55	78.316252673
0	24594	330.65	5.640951556
0	24602	330.75	41.356926878
0	24610	330.85	39.001931001
0	24619	330.9	18.833368581
0	24631	331	115.721998709
0	24643	331.1	86.250556312
0	24652	331.15	24.368727238
0	24670	331.35	3.963844697
0	24677	331.4	6.508327245
0	24714	332.05	30.10210867
0	24763	332.7	10.186274975
0	24773	332.9	33.472632521
0	24780	332.95	47.832526422
0	24794	333.05	19.082916878
0	24801	333.1	2.224836939
0	24822	333.35	32.305027519
0	24840	333.55	47.038435874
0	24854	333.95	44.790677687
0	24876	334.25	47.250169566
0	24907	334.8	37.184889755
0	24922	335.05	63.25217601
0	24936	335.25	81.356227509
0	24944	335.35	0.186944829
0	24951	335.4	10.875970786
0	24976	335.95	24.864382848
0	24983	336	5.452239206
0	25008	336.15	65.028651567
0	25015	336.2	95.477092181
0	25025	336.3	154.569246617
0	25061	336.8	14.458031702
0	25127	338.1	29.99967926
0	25140	338.25	43.019898826
0	25147	338.3	20.552489941
0	25158	338.45	7.547013611
0	25178	338.65	7.342010471
0	25201	338.9	38.760383713
0	25265	339.8	3.994508829
0	25273	339.9	19.505091548
0	25287	340	98.240534148
0	25294	340.05	111.907464024
0	25306	340.25	42.438183525
0	25329	340.5	45.686106884
0	25342	340.65	15.787610827
0	25361	340.9	37.676369313
0	25406	341.35	23.187154664
0	25426	341.55	72.463943542
0	25440	341.75	40.479096631
0	25452	341.85	37.846564361
0	25461	341.9	34.417075089
0	25468	341.95	67.296957282
0	25473	342	97.296968611
0	25489	342.1	78.311438055
0	25503	342.2	165.533634976
0	25513	342.3	63.611657852
0	25520	342.35	6.907827532
0	25545	342.7	34.851493399
0	25621	343.7	25.021367795
0	25628	343.75	24.858859485
0	25637	343.8	42.915268848
0	25673	344.3	45.921724696
0	25705	344.7	49.448577265
0	25720	344.85	46.390113499
0	25728	344.95	25.459825205
0	25746	345.15	22.20809262
0	25765	345.6	29.906521762
0	25772	345.65	30.389516209
0	25780	345.75	7.754975383
0	25799	345.9	142.600775705
0	25812	346.05	40.357430258
0	25817	346.1	57.62448642
0	25867	346.9	10.757761172
0	25903	347.4	14.825308261
0	25920	347.55	27.588684468
0	25925	347.6	52.166628317
0	25942	347.75	22.494844495
0	25975	348.2	38.019787306
0	26007	349.1	17.549747182
0	26024	349.25	20.8739638
0	26040	349.55	5.367788439
0	26058	349.75	4.181964421
0	26087	350	4.049710708
0	26126	350.55	2.774077141
0	26151	350.8	3.966019482
0	26189	351.3	29.876801211
0	26216	351.65	41.324432136
0	26255	352	11.510338509
0	26289	352.4	30.308133491
0	26298	352.45	3.001687563
0	26307	352.5	2.288477057
0	26337	352.9	49.474438075
0	26358	353.25	19.060507323
0	26375	353.5	37.75760297
0	26457	354.5	34.00511037
0	26472	354.65	42.829883499
0	26501	355	44.730914668
0	26508	355.05	5.329883649
0	26533	355.4	37.753570929
0	26544	355.65	9.587990705
0	26570	355.95	6.914965159
0	26619	356.8	6.104261222
0	26649	357.1	40.436026549
0	26659	357.2	118.009291481
0	26700	357.65	16.995057164
0	26713	357.8	17.980053634
0	26734	358.05	33.18577667
0	26741	358.1	9.033614721
0	26752	358.25	27.84841937
0	26764	358.35	85.614827859
0	26776	358.45	117.221102688
0	26803	358.9	27.507199065
0	26821	359	51.103090125
0	26839	359.2	42.082051303
0	26846	359.25	38.115265333
0	26879	359.8	47.692073639
0	26889	360	19.840465956
0	26915	360.4	3.123220029
0	26933	360.8	49.733637708
0	26979	361.5	8.729464229
0	26992	361.65	24.008351366
0	27006	361.75	1.777185687
0	27011	361.8	51.683820031
0	27026	361.95	8.994228055
0	27050	362.45	24.977121339
0	27068	362.65	38.975611924
0	27081	362.8	10.337188717
0	27101	363	77.263289887
0	27124	363.35	2.421021174
0	27142	363.45	84.362919508
0	27152	363.55	172.745882728
0	27157	363.6	57.546392192
0	27179	363.8	22.242092169
0	27184	363.85	60.663619729
0	27203	364.1	42.760272277
0	27215	364.2	139.10644695
0	27220	364.25	108.60279995
0	27225	364.3	141.613768839
0	27273	365.4	18.197741123
0	27283	365.5	23.987224936
0	27293	365.6	27.525533479
0	27311	365.8	35.867227997
0	27333	366.1	42.687994977
0	27346	366.25	18.634027829
0	27363	366.5	46.553187712
0	27388	366.95	47.339674701
0	27400	367.05	46.119128289
0	27415	367.2	23.877125275
0	27429	367.3	47.932229392
0	27466	367.75	24.250449077
0	27474	367.85	117.375700143
0	27492	368.25	19.863700919
0	27513	368.6	29.890322812
0	27526	368.75	9.414454506
0	27568	369.45	23.681621348
0	27573	369.5	63.971920111
0	27582	369.65	27.768616705
0	27604	370.05	5.932218233
0	27611	370.1	40.811086427
0	27653	370.6	41.431923243
0	27688	371.05	45.478542861
0	27710	371.35	12.206116791
0	27720	371.45	5.678700878
0	27730	371.55	70.665104022
0	27750	372.05	45.467769532
0	27760	372.25	19.909759656
0	27768	372.35	4.957863141
0	27775	372.4	42.951014759
0	27797	372.7	41.257781356
0	27802	372.75	76.925988363
0	27811	372.9	10.946475953
0	27832	373.05	100.535540644
0	27837	373.1	96.702994981
0	27859	373.5	48.300437485
0	27882	373.75	39.489141842
0	27897	374	45.749039039
0	27916	374.15	35.4918655
0	27931	374.3	1.474797962
0	27966	374.75	22.895218498
0	28014	375.55	20.803678458
0	28029	375.7	37.290507797
0	28046	375.85	38.777404614
0	28061	376	33.489056408
0	28078	376.25	2.364938027
0	28088	376.35	82.309557028
0	28104	376.55	12.683042572
0	28121	376.7	59.869948189
0	28131	376.8	1.364270224
0	28158	377.05	8.163586581
0	28209	378.3	24.479268866
0	28218	378.45	39.094281371
0	28231	378.6	45.986438289
0	28248	378.75	158.758319126
0	28255	378.8	208.215467472
0	28260	378.85	177.911812337
0	28265	378.9	108.548722674
0	28280	379.05	39.487419798
0	28296	379.25	19.538266143
0	28305	379.4	7.507059782
0	28346	380.15	31.212104035
0	28353	380.2	10.351623189
0	28368	380.65	18.987717752
0	28385	380.8	57.861546781
0	28400	380.95	23.255781382
0	28412	381.05	7.189442373
0	28422	381.15	49.877324583
0	28447	381.6	3.320295643
0	28464	381.85	8.162287739
0	28472	381.95	100.146541784
0	28495	382.4	36.156244144
0	28507	382.5	77.88115911
0	28526	382.95	22.32002188
0	28533	383	31.674397674
0	28550	383.15	101.601642139
0	28569	383.4	41.511486843
0	28579	383.5	29.310886262
0	28596	383.75	36.769529538
0	28643	384.7	49.366742202
0	28693	385.4	23.358845809
0	28714	385.75	42.896566789
0	28763	386.5	0.703600486
0	28773	386.6	0.660750756
0	28790	386.85	7.003558265
0	28802	386.95	19.676296179
0	28809	387	27.808313995
0	28834	387.45	42.054215567
0	28851	387.7	4.503405627
0	28863	387.8	95.563550643
0	28897	388.6	45.060406126
0	28938	389.15	13.722073522
0	28952	389.25	44.324013496
0	28976	389.65	4.454162664
0	28993	389.8	22.053111272
0	29000	389.85	15.487318139
0	29069	391	17.34987724
0	29111	391.5	23.215160204
0	29141	391.9	26.281810456
0	29152	392.05	28.532690228
0	29183	392.6	22.033736078
0	29214	392.95	7.346473888
0	29237	393.2	21.971244736
0	29244	393.25	35.936779686
0	29256	393.55	21.857334434
0	29280	394.05	36.956776078
0	29322	394.65	24.238015496
0	29339	394.8	33.156482205
0	29347	394.9	124.296437079
0	29358	395.15	22.583077193
0	29365	395.2	12.323233765
0	29394	395.55	36.53876624
0	29404	395.65	113.135339691
0	29416	395.75	153.299533718
0	29432	396.15	27.419795589
0	29444	396.25	71.100852787
0	29465	396.6	38.769660165
0	29473	396.7	40.890017774
0	29494	396.85	22.128376406
0	29511	397.1	44.048299461
0	29522	397.25	33.252070564
0	29553	397.6	36.140729378
0	29560	397.65	69.195018368
0	29576	397.75	63.673668659
0	29584	397.85	109.294276068
0	29591	397.9	14.417999501
0	29609	398.2	35.56499127
0	29616	398.25	33.856058512
0	29624	398.35	46.840644738
0	29636	398.55	18.894769877
0	29641	398.6	54.510785065
0	29684	399.25	21.931255534
0	29703	399.7	38.727888808
0	29713	399.9	48.624811165
0	29755	400.5	2.873042272
0	29787	400.8	37.8441016
0	29797	400.9	101.658579457
0	29804	400.95	23.249416086
0	29814	401.05	61.953924051
0	29833	401.3	45.225475164
0	29841	401.4	16.52979541
0	29889	402.1	17.511521336
0	29910	402.35	48.731472759
0	29921	402.5	26.311606744
0	29958	403.25	27.511627571
0	30015	404.2	35.624611683
0	30029	404.4	17.592577714
0	30040	404.55	15.082705113
0	30069	404.9	96.394950228
0	30076	404.95	78.805735258
0	30081	405	65.885530363
0	30098	405.15	41.958023218
0	30149	406	34.77971652
0	30160	406.15	25.696442915
0	30177	406.3	48.617365921
0	30208	406.75	34.069522062
0	30218	406.85	1.032156507
0	30230	406.95	24.533913471
0	30248	407.15	38.348973014
0	30255	407.2	49.981160596
0	30283	407.5	42.769157828
0	30296	407.65	42.185298503
0	30344	408.45	8.176434099
0	30358	408.55	7.807560632
0	30376	408.65	28.329847622
0	30386	408.75	103.434021543
0	30401	408.9	26.083781381
0	30448	409.65	42.382970581
0	30465	410	37.299771422
0	30479	410.1	72.232882342
0	30510	410.45	17.569651185
0	30518	410.55	3.000558676
0	30536	410.65	30.039034091
0	30565	411.1	37.293405157
0	30579	411.2	84.221835347
0	30621	411.6	31.227414243
0	30637	411.7	42.707486896
0	30642	411.75	64.592785726
0	30654	411.85	160.075327386
0	30664	411.95	99.342086429
0	30760	413.35	21.294100666
0	30773	413.5	35.018194185
0	30784	413.65	39.362207691
0	30789	413.7	71.492983891
0	30797	413.8	25.225885882
0	30821	414.1	73.932948247
0	30829	414.2	110.057206005
0	30856	414.85	20.716437674
0	30870	415.05	45.045225319
0	30878	415.15	17.338207114
0	30894	415.35	81.825691033
0	30899	415.4	80.969183051
0	30931	415.9	46.045745493
0	30941	416.1	43.990577123
0	30954	416.25	17.322281678
0	30976	416.65	19.261140232
0	30995	417.1	6.473425712
0	31003	417.2	46.940104148
0	31034	417.65	10.271512543
0	31043	417.8	12.102732288
0	31057	417.9	64.248705596
0	31078	418.15	48.914664946
0	31110	418.65	42.613239058
0	31125	418.8	42.252199458
0	31139	418.9	90.862383694
0	31155	419	44.403390763
0	31170	419.15	38.023172476
0	31187	419.4	21.74599575
0	31203	419.7	27.137409989
0	31213	419.8	113.76551957
0	31224	419.85	84.850934671
0	31231	419.9	77.045291895
0	31236	419.95	123.072927989
0	31305	420.9	22.767412329
0	31329	421.3	15.428801732
0	31459	422.9	39.363489305
0	31473	423	13.762803096
0	31488	423.15	13.930308807
0	31517	423.7	36.346931956
0	31535	423.9	16.828784801
0	31549	424.1	38.080996509
0	31559	424.2	115.963615098
0	31567	424.3	26.708560848
0	31574	424.35	12.147293663
0	31593	424.6	25.197545821
0	31622	425.15	1.249685331
0	31631	425.2	42.397405487
0	31678	425.85	48.120242486
0	31695	426	37.410088956
0	31705	426.1	5.437077113
0	31723	426.5	35.087978541
0	31742	426.65	48.709842214
0	31754	426.75	106.35234535
0	31766	426.85	164.927685964
0	31775	426.9	69.281172481
0	31791	427.1	35.109964339
0	31798	427.15	10.872176326
0	31824	427.55	12.278245178
0	31841	427.7	7.018066907
0	31888	428.55	22.726944798
0	31918	428.85	21.424590963
0	31930	428.95	15.539107798
0	31999	430.1	4.534688477
0	32011	430.2	86.601118578
0	32018	430.25	28.780234189
0	32034	430.35	46.164692358
0	32044	430.45	40.061527675
0	32073	430.9	26.856987852
0	32080	430.95	11.716744244
0	32112	431.35	41.919801369
0	32127	431.7	48.528828876
0	32143	432	35.69877754
0	32150	432.05	20.250693301
0	32182	432.55	16.92318679
0	32203	432.9	38.011780194
0	32217	433	101.667076032
0	32225	433.1	139.964260252
0	32245	433.4	37.493691565
0	32260	433.55	4.544318319
0	32291	433.9	1.236739687
0	32304	434.15	33.367022038
0	32318	434.35	45.69040414
0	32344	434.75	46.935693654
0	32353	434.8	18.776531947
0	32360	434.85	26.042520067
0	32376	435.05	14.935957009
0	32403	435.6	68.428492882
0	32483	437.1	35.293754908
0	32490	437.15	83.043678715
0	32502	437.25	68.694572904
0	32516	437.35	131.289613039
0	32528	437.45	35.79260821
0	32547	437.6	34.415765557
0	32570	437.85	23.946386564
0	32582	437.95	1.528406102
0	32624	438.55	6.342947191
0	32637	438.8	31.350934516
0	32645	438.9	2.074985132
0	32653	439	12.565537256
0	32660	439.05	27.826412541
0	32677	439.3	65.876452688
0	32689	439.4	150.058303218
0	32694	439.45	77.382191866
0	32726	439.95	35.874489069
0	32792	441.05	31.291800802
0	32807	441.3	25.453418785
0	32826	441.45	104.9288761
0	32836	441.55	126.96337504
0	32845	441.6	36.886414069
0	32857	441.7	53.638032536
0	32876	441.85	3.282703689
0	32888	441.95	24.999140974
0	32900	442.05	40.867077262
0	32912	442.15	135.760229458
0	32917	442.2	134.936376625
0	32951	442.7	7.421910452
0	32965	442.8	19.899679586
0	33002	443.35	45.755127994
0	33016	443.55	27.764746019
0	33037	443.9	48.305882036
0	33058	444.25	43.622544936
0	33065	444.3	32.45513516
0	33075	444.5	13.475021544
0	33094	444.75	19.268162266
0	33128	445.15	10.217867593
0	33156	445.45	6.33260501
0	33188	445.95	4.587005441
0	33204	446.05	97.360458495
0	33212	446.15	193.119452653
0	33224	446.45	20.407293999
0	33250	446.85	40.646056264
0	33257	446.9	40.457967732
0	33295	447.7	3.274223346
0	33307	447.8	95.12882612
0	33329	448.1	11.429471164
0	33341	448.2	47.839396406
0	33351	448.3	117.870755159
0	33365	448.6	18.376832281
0	33375	448.7	87.946838585
0	33393	448.9	21.72280218
0	33454	449.65	48.418132767
0	33483	450.2	35.39163628
0	33505	450.7	21.303997214
0	33519	450.8	84.085243882
0	33524	450.85	101.49888542
0	33529	450.9	140.445788906
0	33538	450.95	20.151890987
0	33567	451.2	20.51320451
0	33582	451.35	30.7496762
0	33623	451.9	38.470826364
0	33672	452.85	8.11181046
0	33699	453.2	41.081255537
0	33725	453.7	14.016675623
0	33741	453.9	7.362075537
0	33760	454.15	36.255101256
0	33785	454.4	14.235910251
0	33817	454.8	26.114027648
0	33830	454.95	0.307377826
0	33838	455.05	7.70462773
0	33846	455.15	16.861925137
0	33868	455.35	45.393231027
0	33878	455.45	118.345037711
0	33895	455.7	19.821281434
0	33910	455.95	42.534153123
0	33941	456.6	44.23296197
0	33963	457	10.387115478
0	33990	457.45	3.84099179
0	34002	457.55	90.670356775
0	34014	457.65	20.586785926
0	34025	457.8	13.643758983
0	34041	457.9	40.730223985
0	34055	458	116.183285662
0	34060	458.05	137.171900836
0	34065	458.1	127.056141841
0	34082	458.35	15.13235401
0	34087	458.4	57.471303033
0	34097	458.6	39.738686523
0	34111	458.7	42.310501568
0	34116	458.75	60.880518891
0	34154	459.15	32.580646334
0	34164	459.25	129.602416157
0	34169	459.3	166.177150349
0	34178	459.45	31.037476149
0	34187	459.6	18.271897986
0	34194	459.65	25.108692568
0	34217	459.8	99.297850682
0	34243	460.1	5.374995612
0	34264	460.45	1.335982786
0	34293	460.8	34.901003656
0	34301	460.9	7.725077803
0	34308	460.95	12.682223937
0	34322	461.05	84.464617462
0	34336	461.35	1.486460602
0	34366	461.95	41.977851372
0	34373	462	15.44069428
0	34415	462.6	12.030313289
0	34432	462.75	21.518032409
0	34483	463.4	16.21484206
0	34503	463.6	12.100468642
0	34523	463.9	13.714118414
0	34533	464	31.245802612
0	34565	464.5	31.193475494
0	34605	465	45.216990754
0	34632	465.35	12.260086058
0	34639	465.4	21.114502323
0	34714	466.55	21.086672411
0	34732	466.75	40.136919102
0	34741	466.9	7.301345058
0	34753	467	49.01702136
0	34768	467.25	27.790236309
0	34775	467.3	6.710362882
0	34782	467.35	23.835161312
0	34790	467.45	41.139507302
0	34797	467.5	3.420974096
0	34810	467.65	39.159231415
0	34818	467.75	10.611725286
0	34832	467.95	41.460620064
0	34849	468.1	92.539832778
0	34857	468.2	134.526486883
0	34875	468.6	8.846295811
0	34883	468.7	42.229040126
0	34902	468.95	9.760073792
0	34916	469.15	36.495224934
0	34924	469.25	24.874518204
0	34939	469.7	3.143818744
0	34947	469.8	31.090289897
0	34954	469.85	7.634915775
0	34961	469.9	9.854786202
0	34980	470.15	29.81954431
0	35000	470.45	29.198375552
0	35007	470.5	26.982649759
0	35017	470.6	45.366272687
0	35022	470.65	79.640321037
0	35040	471.05	29.14846145
0	35065	471.3	6.616530366
0	35076	471.45	43.460726216
0	35086	471.65	35.527794346
0	35103	471.8	31.819309446
0	35124	472.15	24.735408033
0	35137	472.3	28.483649106
0	35162	472.75	24.213478434
0	35174	472.85	51.636946721
0	35189	473	36.975038031
0	35194	473.05	68.100953326
0	35201	473.1	33.71158891
0	35215	473.2	58.247358358
0	35227	473.3	53.780096605
0	35237	473.4	99.578471224
0	35253	473.5	21.836003816
0	35279	473.8	35.488172866
0	35299	474	14.278682027
0	35316	474.25	33.92623092
0	35323	474.3	38.817722797
0	35339	474.6	22.717034401
0	35349	474.7	2.406406337
0	35361	474.8	83.398035937
0	35386	475.25	9.814354318
0	35393	475.3	10.890797785
0	35420	475.65	26.541488794
0	35425	475.7	53.286147003
0	35433	475.8	1.170972413
0	35451	476	5.914349871
0	35475	476.2	39.769681129
0	35507	476.7	45.857482018
0	35524	476.85	27.497925135
0	35542	477.05	0.809263883
0	35549	477.1	48.27692608
0	35581	477.5	87.262616846
0	35592	477.75	10.00365122
0	35611	478.1	44.718879593
0	35644	478.55	12.085057151
0	35696	479.65	30.099423259
0	35704	479.75	36.076735753
0	35716	479.85	31.788706235
0	35724	479.95	1.595572915
0	35739	480.2	47.38327706
0	35746	480.25	41.922671514
0	35765	480.5	44.142923853
0	35774	480.55	4.643656476
0	35786	480.65	39.009961237
0	35799	480.9	43.141625887
0	35827	481.5	12.80405424
0	35842	481.65	29.267465493
0	35861	481.9	9.676015205
0	35875	482.1	11.206972423
0	35913	482.7	9.580732812
0	35920	482.75	56.753952752
0	35964	483.45	22.694892318
0	35978	483.55	12.451252171
0	35987	483.6	38.832311733
0	35994	483.65	15.007735523
0	36086	484.95	46.349585534
0	36135	485.9	14.222082763
0	36153	486.1	48.985666171
0	36173	486.4	44.621398854
0	36184	486.55	23.216611829
0	36277	488.3	26.174230678
0	36293	488.6	23.515920479
0	36298	488.65	67.787198853
0	36309	488.9	16.779526423
0	36347	489.5	18.113461505
0	36357	489.6	42.872034295
0	36371	489.7	106.808623947
0	36396	489.95	31.38789874
0	36415	490.1	44.25381943
0	36432	490.25	23.86009335
0	36471	490.7	15.224854451
0	36490	490.95	43.285027211
0	36520	491.15	17.755540012
0	36556	491.55	15.702705093
0	36570	491.65	69.218728909
0	36580	491.75	35.954184493
0	36594	491.85	0.975574345
0	36642	492.65	34.955882154
0	36653	492.8	17.559006034
0	36665	492.9	51.596235482
0	36685	493.3	22.494791103
0	36692	493.35	70.029488877
0	36697	493.4	73.856432636
0	36704	493.45	5.294684276
0	36789	495.1	17.015861703
0	36806	495.25	34.216565924
0	36813	495.3	63.057021848
0	36820	495.35	65.336847851
0	36834	495.55	9.223416483
0	36839	495.6	56.559276913
0	36851	495.9	33.80930218
0	36878	496.35	28.088522799
0	36892	496.45	71.950856168
0	36897	496.5	111.081531909
0	36910	496.65	31.966349644
0	36973	497.4	20.847792512
0	36978	497.45	59.209623
0	36998	497.65	48.443505275
0	37003	497.7	85.676811214
0	37032	498.05	4.690873378
0	37040	498.15	11.569057126
0	37121	499.7	47.103961952
0	37129	499.8	1.287619991
0	37142	499.95	49.310767887
0	37150	500.05	103.005171874
0	37157	500.1	24.785327755
0	37171	500.3	33.400315015
0	37181	500.4	49.979392994
0	37195	500.5	12.395774602
0	37207	500.6	33.435120537
0	37219	500.7	116.356779092
0	37250	501.05	30.39133081
0	37267	501.3	37.374707544
0	37310	502.15	11.058116629
0	37327	502.5	21.513139559
0	37335	502.6	6.883473405
0	37367	502.9	42.439495773
0	37379	503	100.087537005
0	37384	503.05	117.315645389
0	37403	503.4	48.369499831
0	37417	503.6	35.920236019
0	37432	503.75	32.981323086
0	37444	503.85	112.195527313
0	37449	503.9	140.324815746
0	37466	504.25	20.693542944
0	37474	504.35	44.271227225
0	37486	504.45	71.184203122
0	37509	504.8	10.567301418
0	37521	504.9	93.214690771
0	37552	505.45	30.334464871
0	37563	505.6	40.15688179
0	37573	505.7	74.413865566
0	37640	506.65	47.366008034
0	37650	506.75	127.986117827
0	37701	507.4	6.810599128
0	37708	507.45	36.99914586
0	37717	507.6	6.000599297
0	37724	507.65	20.811135102
0	37783	508.4	3.940322536
0	37797	508.5	64.596201759
0	37810	508.65	18.236461341
0	37822	508.75	57.108912116
0	37863	509.3	14.0695483
0	37880	509.45	29.82066211
0	37902	509.75	31.782110618
0	37915	509.9	30.250537684
0	37920	509.95	67.21314383
0	37966	510.65	48.335901437
0	37995	510.9	24.525430662
0	38005	511	119.658000011
0	38030	511.45	9.957128818
0	38045	511.7	16.827541169
0	38075	512.3	45.741226916
0	38088	512.45	24.07797436
0	38110	512.65	34.621000384
0	38133	513	49.865379756
0	38179	513.6	30.841217297
0	38186	513.65	33.72497516
0	38205	513.8	2.332846791
0	38236	514.15	46.067106488
0	38251	514.3	39.985374005
0	38267	514.4	15.475337178
0	38281	514.5	66.50408967
0	38290	514.55	47.594297643
0	38298	514.65	138.367053316
0	38310	514.75	60.006811954
0	38317	514.8	36.893422408
0	38337	515	10.848713881
0	38342	515.05	58.967010663
0	38367	515.5	40.055307938
0	38379	515.6	11.100695847
0	38384	515.65	55.909886869
0	38446	516.85	25.689539093
0	38453	516.9	45.963674084
0	38483	517.2	6.367567951
0	38493	517.3	45.127452574
0	38500	517.35	32.262262498
0	38507	517.4	1.369607466
0	38530	517.75	39.455623074
0	38544	517.85	29.419054738
0	38562	518.05	49.502465406
0	38582	518.35	15.002348234
0	38594	518.45	25.412343287
0	38605	518.6	34.122045129
0	38624	518.75	15.864916012
0	38638	518.85	86.410352737
0	38669	519.2	25.979829582
0	38683	519.3	41.305424885
0	38694	519.45	23.686049953
0	38703	519.5	37.805477307
0	38718	519.65	73.795960099
0	38734	519.95	47.186697851
0	38758	520.45	36.991857961
0	38801	521.3	15.96392152
0	38859	522.1	1.655275432
0	38867	522.2	15.826634159
0	38877	522.4	25.50056775
0	38892	522.65	45.546458599
0	38900	522.75	49.422596564
0	38933	523.2	28.345102417
0	38938	523.25	74.423035324
0	38981	523.8	0.839954423
0	38993	523.9	36.099773473
0	39004	524.05	40.335119574
0	39020	524.15	47.970680117
0	39040	524.35	6.646417618
0	39053	524.6	15.903177108
0	39089	525.3	45.323397931
0	39101	525.5	7.087711786
0	39114	525.65	45.536819321
0	39137	526.1	42.642267913
0	39154	526.25	24.525079832
0	39161	526.3	34.560391095
0	39183	526.5	10.375562192
0	39192	526.55	40.131672864
0	39218	526.85	12.724423929
0	39237	527	26.710166126
0	39244	527.05	22.815931834
0	39293	527.8	5.937012608
0	39335	528.4	16.034003593
0	39347	528.5	95.367706617
0	39382	528.95	9.22921544
0	39398	529.25	47.506774618
0	39424	529.55	23.207124701
0	39431	529.6	67.163507199
0	39436	529.65	91.041013311
0	39463	530	1.282720083
0	39505	530.7	8.409789552
0	39537	531.1	37.654076792
0	39542	531.15	63.258094705
0	39555	531.3	15.331867294
0	39565	531.4	105.046201877
0	39575	531.5	151.674403601
0	39590	531.65	10.981267357
0	39606	531.75	1.93678301
0	39626	531.95	1.820180156
0	39643	532.2	32.75465213
0	39659	532.4	32.801974954
0	39673	532.6	29.160310471
0	39701	532.9	22.658324522
0	39710	532.95	15.030804518
0	39726	533.15	47.675469859
0	39737	533.3	29.87863187
0	39749	533.4	90.294372657
0	39754	533.45	123.056534591
0	39763	533.6	15.873402819
0	39776	533.75	76.997969234
0	39799	534.2	0.46688482
0	39856	534.95	33.071843669
0	39886	535.35	23.493783672
0	39937	536.2	13.37526322
0	39955	536.4	4.806225212
0	40007	537.2	34.384725772
0	40024	537.35	20.016177657
0	40041	537.6	20.085568895
0	40084	538.35	36.641960051
0	40094	538.45	130.692048036
0	40106	538.65	12.659622057
0	40126	538.85	10.818513618
0	40133	538.9	11.975083329
0	40149	539	63.331610384
0	40159	539.1	57.246022311
0	40178	539.25	13.850912825
0	40199	539.5	14.082268299
0	40219	539.9	5.199602483
0	40231	540	46.281569658
0	40245	540.2	45.601207716
0	40262	540.45	26.85932285
0	40282	540.65	47.834559509
0	40296	540.75	3.211671129
0	40313	541	0.442114178
0	40323	541.1	80.698968582
0	40330	541.15	18.096431809
0	40337	541.2	41.032306809
0	40344	541.25	17.915967935
0	40362	541.35	58.104570445
0	40376	541.45	22.453397662
0	40392	541.65	23.543216316
0	40413	542	45.418011966
0	40429	542.1	97.529278766
0	40439	542.2	134.42735178
0	40444	542.25	143.151036042
0	40477	542.6	40.940186373
0	40502	542.95	25.307439778
0	40516	543.15	88.132060332
0	40541	543.7	1.913385942
0	40561	544	43.638820054
0	40571	544.1	17.480379776
0	40587	544.3	1.066401507
0	40601	544.5	30.995096257
0	40624	544.75	2.610607953
0	40636	544.85	10.845173393
0	40650	545.25	45.035448986
0	40669	545.4	13.421875476
0	40688	545.55	45.611345219
0	40724	545.95	29.962248957
0	40731	546	62.229604152
0	40785	546.5	21.132544704
0	40808	546.75	41.915786307
0	40859	547.4	40.175160472
0	40878	547.55	27.608236819
0	40885	547.6	39.09573424
0	40897	547.8	10.287784447
0	40914	547.95	68.192176286
0	40924	548.05	56.626648338
0	40946	548.35	35.281261118
0	40953	548.4	40.793010892
0	40960	548.45	4.696580374
0	40974	548.65	33.4257504
0	40981	548.7	1.223972391
0	41013	549.1	31.80941632
0	41023	549.2	41.582888184
0	41033	549.4	9.33708327
0	41040	549.45	13.73482466
0	41059	549.9	14.520109491
0	41097	550.3	13.696837129
0	41107	550.4	106.730402412
0	41129	550.8	49.330099182
0	41184	551.95	22.561176034
0	41198	552.05	43.564294068
0	41205	552.1	51.277915846
0	41210	552.15	96.632854996
0	41226	552.45	2.177477365
0	41237	552.6	4.101761809
0	41249	552.7	100.97311003
0	41254	552.75	112.064008817
0	41271	553.1	57.87831248
0	41288	553.35	38.122397032
0	41310	553.55	33.831340522
0	41318	553.65	124.11736649
0	41330	553.75	34.005219058
0	41340	553.85	8.881333271
0	41349	554	47.51399179
0	41356	554.05	37.315067372
0	41374	554.35	49.785127306
0	41408	554.75	3.287172586
0	41430	555.05	39.552722805
0	41442	555.15	115.724614768
0	41447	555.2	125.104183426
0	41452	555.25	160.974543191
0	41473	555.8	26.900455141
0	41480	555.85	19.352946492
0	41498	556.25	31.506445348
0	41505	556.3	1.863379814
0	41512	556.35	10.540838343
0	41532	556.65	18.469947616
0	41564	557.05	42.710607405
0	41585	557.5	29.020765211
0	41615	557.8	47.845740819
0	41620	557.85	76.676872033
0	41639	558.1	17.56133196
0	41678	558.45	28.366855644
0	41698	558.65	20.890386413
0	41708	558.75	81.573607887
0	41732	559.05	2.298635896
0	41749	559.3	1.689430798
0	41806	560.45	1.72080295
0	41814	560.55	1.684455187
0	41829	560.8	35.130429508
0	41844	560.95	11.066600013
0	41876	561.35	23.249686895
0	41891	561.5	8.782859634
0	41927	562.1	3.145708183
0	41953	562.5	23.61540396
0	41965	562.6	21.138988748
0	41972	562.65	48.501764173
0	41985	562.8	5.110977903
0	42031	563.5	49.723273766
0	42045	563.8	49.064845961
0	42067	564.1	49.006898002
0	42102	564.65	10.72171597
0	42145	565.1	30.684058727
0	42157	565.2	86.201181312
0	42165	565.3	184.455979116
0	42188	565.65	29.598393374
0	42209	565.9	32.819287788
0	42220	566.05	23.231335475
0	42240	566.25	28.438188574
0	42261	566.6	36.146291333
0	42276	566.85	14.443319031
0	42307	567.5	26.974553815
0	42320	567.65	5.476933045
0	42360	568.25	37.495548921
0	42382	568.45	9.319013156
0	42398	568.55	40.717584532
0	42459	569.5	16.488253866
0	42472	569.75	40.628625592
0	42481	569.9	15.050152419
0	42496	570.15	8.49036945
0	42513	570.3	20.976055523
0	42521	570.4	116.865560536
0	42530	570.45	38.737665516
0	42535	570.5	53.748768055
0	42542	570.55	42.650761578
0	42558	570.65	32.536964941
0	42565	570.7	29.314034983
0	42618	571.65	43.965048662
0	42637	571.8	11.348178828
0	42649	571.9	17.75331545
0	42670	572.05	39.598555577
0	42710	572.65	21.867708922
0	42728	572.85	31.128847042
0	42749	573.4	46.805351434
0	42791	574.2	46.75942591
0	42808	574.35	45.0305308
0	42813	574.4	57.789848333
0	42829	574.6	24.44520731
0	42854	575.15	41.332523377
0	42873	575.4	18.822984823
0	42880	575.45	0.029850805
0	42896	575.65	17.464195228
0	42911	575.9	48.878433193
0	42927	576.1	18.548275049
0	42934	576.15	0.583801387
0	42942	576.25	4.034096853
0	42967	576.8	17.244064553
0	42981	577	18.382341677
0	42993	577.2	26.87100844
0	43005	577.3	81.426863065
0	43017	577.4	102.034305044
0	43028	577.55	9.085393816
0	43043	577.7	83.350979944
0	43053	577.8	32.132594776
0	43071	578.1	15.913778388
0	43103	578.4	9.215831489
0	43151	579.2	47.275151819
0	43167	579.4	24.850606263
0	43214	580.15	38.714023551
0	43232	580.35	42.737739472
0	43245	580.5	6.741661109
0	43265	580.8	19.408767306
0	43281	581	12.146150642
0	43301	581.2	30.024275817
0	43359	582	16.466408985
0	43369	582.1	4.233866967
0	43385	582.2	8.762344976
0	43399	582.3	95.938521383
0	43406	582.35	117.486683513
0	43420	582.45	75.731018408
0	43439	582.7	44.159188281
0	43478	583.25	46.882771545
0	43503	583.6	4.173531191
0	43517	583.7	94.974042928
0	43568	584.45	46.311561
0	43592	584.85	28.928797895
0	43621	585.2	44.560376974
0	43645	585.5	45.377746457
0	43655	585.6	11.045757458
0	43673	585.8	6.555929573
0	43705	586.2	24.660143632
0	43727	586.4	32.370664024
0	43739	586.5	4.656626373
0	43763	586.7	10.76647849
0	43773	586.8	7.673275096
0	43788	586.95	29.789895861
0	43813	587.3	34.506045523
0	43831	587.4	44.185313252
0	43841	587.5	124.236496919
0	43849	587.6	221.846605376
0	43867	587.8	34.775600659
0	43897	588.3	36.55581745
0	43916	588.65	36.491232873
0	43938	588.95	6.166036865
0	43952	589.05	18.857497771
0	43965	589.2	23.102643912
0	43972	589.25	7.805306909
0	43986	589.65	34.418320597
0	43999	589.8	51.297274434
0	44031	590.5	32.93263801
0	44063	590.9	29.625150373
0	44077	591	36.714254576
0	44089	591.1	26.291472824
0	44102	591.25	36.598652438
0	44147	592.2	43.399342144
0	44166	592.35	0.614671977
0	44183	592.5	49.631792779
0	44190	592.55	27.295965719
0	44202	592.65	3.136330057
0	44218	593.05	16.653280465
0	44226	593.15	28.823925725
0	44233	593.2	18.799229484
0	44280	593.95	26.517988936
0	44295	594.1	63.012998706
0	44312	594.45	25.731297349
0	44331	594.7	27.288969396
0	44357	595	47.635321668
0	44384	595.35	49.888758784
0	44391	595.4	13.407110754
0	44398	595.45	38.501992242
0	44414	595.65	9.002666935
0	44424	595.75	1.037337419
0	44442	596.15	29.793586263
0	44451	596.3	49.953537259
0	44460	596.45	6.047124256
0	44516	597.35	9.174353597
0	44572	598.25	28.99827292
0	44595	598.7	34.266829101
0	44605	598.8	37.845444585
0	44621	598.9	131.702602984
0	44626	598.95	138.632243877
0	44633	599	115.784606209
0	44638	599.05	154.695258061
0	44643	599.1	101.497528949
0	44658	599.35	82.170933375
0	44667	599.5	39.114585037
0	44679	599.6	29.25487993
0	44700	599.95	5.48532127
0	44731	600.4	37.94555844
0	44768	600.85	19.901461711
0	44785	601	25.225085895
0	44799	601.1	65.428369105
0	44811	601.2	88.349179281
0	44834	601.35	40.680920082
0	44850	601.45	0.813757243
0	44876	601.75	18.333643742
0	44895	602	41.855789843
0	44902	602.05	39.032063387
0	44925	602.3	33.90586329
0	44930	602.35	62.317165712
0	44968	602.85	40.890452219
0	44978	602.95	33.958144715
0	44992	603.05	95.982069845
0	45008	603.15	157.723866952
0	45013	603.2	135.3277881
0	45071	603.8	31.556087246
0	45083	603.9	42.869646997
0	45115	604.4	35.58717322
0	45139	604.6	23.437963035
0	45213	605.6	13.79747907
0	45220	605.65	22.563175938
0	45228	605.75	44.227158157
0	45243	606	94.659909455
0	45280	606.55	47.018797101
0	45303	607.1	8.030499993
0	45323	607.3	29.963515954
0	45328	607.35	79.463276141
0	45366	607.75	0.336837659
0	45385	608.1	43.889273424
0	45406	608.35	94.035068933
0	45416	608.45	133.940291606
0	45428	608.55	217.358721075
0	45455	609	31.400507929
0	45463	609.1	25.328700934
0	45495	609.4	21.050445545
0	45537	610	42.490691423
0	45566	610.45	30.88240101
0	45575	610.5	40.895399297
0	45585	610.6	137.751595478
0	45590	610.65	53.445400943
0	45602	610.75	82.283923078
0	45614	610.85	48.165363954
0	45626	610.95	86.406066987
0	45639	611.1	28.381221092
0	45649	611.3	30.454247205
0	45673	611.7	4.907011999
0	45706	612.35	11.055361717
0	45719	612.5	86.713124327
0	45743	612.9	8.061261164
0	45766	613.25	38.140075485
0	45787	613.6	21.557743281
0	45857	614.5	35.845543041
0	45871	614.6	23.758325462
0	45890	614.75	1.374454672
0	45905	614.9	11.66711974
0	45922	615.05	39.94085825
0	45932	615.15	32.084721888
0	45943	615.3	45.760719576
0	45958	615.45	39.166373468
0	45970	615.55	82.712136436
0	46003	616	4.766092763
0	46015	616.1	75.471195163
0	46041	616.4	45.83971514
0	46046	616.45	75.747361335
0	46051	616.5	121.630891036
0	46063	616.6	211.011178055
0	46068	616.65	135.830536178
0	46083	616.8	25.121101389
0	46098	616.95	92.600724428
0	46108	617.15	25.979204967
0	46116	617.25	6.116275177
0	46123	617.3	12.703676764
0	46147	617.6	14.480795618
0	46161	617.8	34.285289882
0	46168	617.85	42.648374829
0	46206	618.35	22.720063177
0	46216	618.45	105.148104901
0	46235	618.7	40.693633588
0	46257	619.3	34.841080913
0	46267	619.4	46.336199363
0	46272	619.45	82.793365349
0	46291	619.6	20.844411859
0	46296	619.65	58.265041356
0	46325	620	17.242901711
0	46361	620.6	14.243925415
0	46377	620.7	47.457161876
0	46417	621.3	43.486933066
0	46434	621.55	34.274480964
0	46449	621.8	13.209784771
0	46459	621.9	0.443278291
0	46481	622.1	25.750157636
0	46513	622.6	32.416049264
0	46543	623	39.433226958
0	46558	623.15	27.177808077
0	46572	623.25	85.840968102
0	46612	623.75	33.751631613
0	46664	624.65	48.016190962
0	46702	625.05	25.06345199
1	42	0.4	50
1	49	0.45	38
1	74	0.8	32
1	93	1.05	29
1	128	1.4	26
1	171	2.15	24
1	185	2.25	24
1	199	2.35	29
1	206	2.4	36
1	219	2.55	30
1	248	3.1	35
1	296	4.1	38
1	301	4.15	43
1	325	4.45	43
1	347	4.85	43
1	359	4.95	42
1	385	5.25	42
1	402	5.4	36
1	426	5.7	28
1	437	5.75	26
1	445	5.85	31
1	468	6.1	33
1	480	6.2	29
1	487	6.25	31
1	562	7.4	32
1	581	7.65	35
1	593	7.75	35
1	601	7.85	38
1	615	7.95	37
1	635	8.15	36
1	642	8.2	29
1	666	8.5	29
1	673	8.55	32
1	709	9.05	32
1	736	9.5	34
1	762	9.8	32
1	778	10	32
1	785	10.05	27
1	801	10.25	25
1	811	10.35	24
1	825	10.55	23
1	862	11.1	22
1	895	11.65	19
1	905	11.85	17
1	917	11.95	14
1	924	12	15
1	934	12.2	14
1	945	12.45	16
1	952	12.5	15
1	966	12.6	24
1	982	12.8	21
1	990	12.9	22
1	1004	13.1	21
1	1011	13.15	24
1	1018	13.2	26
1	1041	13.45	27
1	1064	13.8	31
1	1095	14.35	30
1	1124	14.7	34
1	1131	14.75	29
1	1141	14.85	40
1	1209	15.95	38
1	1230	16.1	39
1	1240	16.2	46
1	1245	16.25	58
1	1259	16.35	71
1	1281	16.55	74
1	1310	16.9	75
1	1326	17.1	74
1	1338	17.2	71
1	1367	17.65	63
1	1380	17.8	67
1	1388	17.9	76
1	1444	18.9	68
1	1471	19.35	58
1	1499	19.75	47
1	1510	19.9	42
1	1556	20.8	44
1	1619	21.55	42
1	1662	22.1	41
1	1691	22.35	40
1	1732	22.8	37
1	1763	23.15	26
1	1785	23.35	26
1	1792	23.4	24
1	1805	23.55	22
1	1821	23.95	23
1	1853	24.45	23
1	1868	24.6	31
1	1930	25.7	32
1	1945	25.85	39
1	1950	25.9	43
1	2002	26.8	44
1	2019	26.95	54
1	2059	27.45	55
1	2090	27.9	52
1	2105	28.15	50
1	2184	29.3	51
1	2214	29.6	46
1	2222	29.7	56
1	2243	30.05	50
1	2251	30.15	54
1	2258	30.2	53
1	2266	30.3	41
1	2291	30.65	40
1	2309	30.85	44
1	2339	31.25	43
1	2391	32.25	43
1	2403	32.35	40
1	2422	32.5	31
1	2470	33.3	34
1	2484	33.4	23
1	2493	33.45	24
1	2524	33.8	26
1	2537	33.95	27
1	2568	34.4	24
1	2575	34.45	23
1	2617	35.15	25
1	2649	35.65	25
1	2673	35.95	23
1	2685	36.05	22
1	2692	36.1	29
1	2702	36.2	31
1	2711	36.25	28
1	2761	37.25	27
1	2781	37.45	30
1	2795	37.65	32
1	2805	37.75	31
1	2822	37.9	32
1	2861	38.55	34
1	2908	39.3	31
1	2921	39.45	28
1	2945	39.75	26
1	2955	39.85	29
1	3012	40.5	30
1	3038	40.9	29
1	3047	41.05	26
1	3057	41.15	27
1	3076	41.3	40
1	3125	41.75	38
1	3134	41.8	41
1	3139	41.85	44
1	3191	42.55	46
1	3231	43.15	43
1	3240	43.2	40
1	3261	43.35	40
1	3272	43.4	45
1	3277	43.45	50
1	3284	43.5	48
1	3292	43.6	69
1	3317	43.95	67
1	3326	44.1	60
1	3362	44.7	56
1	3369	44.75	60
1	3397	45.15	62
1	3407	45.35	61
1	3420	45.5	59
1	3440	45.8	54
1	3475	46.65	46
1	3510	47.3	29
1	3525	47.45	32
1	3540	47.6	32
1	3568	48.1	34
1	3582	48.3	30
1	3589	48.35	29
1	3603	48.45	36
1	3628	49.1	32
1	3653	49.45	29
1	3678	49.7	27
1	3693	49.85	23
1	3721	50.15	23
1	3728	50.2	27
1	3747	50.45	29
1	3754	50.5	31
1	3768	50.7	31
1	3798	51.5	27
1	3855	52.25	31
1	3862	52.3	38
1	3880	52.4	48
1	3890	52.5	67
1	3898	52.6	81
1	3950	53.2	81
1	3987	53.85	80
1	4004	54	79
1	4021	54.25	80
1	4028	54.3	82
1	4033	54.35	85
1	4051	54.45	82
1	4056	54.5	78
1	4061	54.55	68
1	4076	54.7	57
1	4093	54.85	53
1	4108	55	55
1	4149	55.45	56
1	4159	55.55	57
1	4173	55.65	59
1	4178	55.7	65
1	4183	55.75	76
1	4211	56.15	73
1	4223	56.25	70
1	4235	56.35	64
1	4242	56.4	66
1	4281	56.85	66
1	4288	56.9	68
1	4318	57.2	68
1	4330	57.5	59
1	4337	57.55	46
1	4349	57.65	38
1	4368	57.9	38
1	4377	57.95	33
1	4403	58.25	36
1	4410	58.3	35
1	4425	58.55	33
1	4432	58.6	32
1	4463	58.95	31
1	4473	59.05	42
1	4480	59.1	42
1	4492	59.2	38
1	4517	59.45	37
1	4533	59.55	45
1	4540	59.6	53
1	4566	59.9	54
1	4573	59.95	55
1	4601	60.65	54
1	4609	60.75	55
1	4638	61	45
1	4678	61.6	46
1	4688	61.7	46
1	4699	61.85	46
1	4733	62.25	38
1	4759	62.55	27
1	4764	62.6	31
1	4817	63.55	31
1	4846	64.1	30
1	4858	64.4	30
1	4872	64.5	36
1	4884	64.6	43
1	4896	64.8	43
1	4913	64.95	42
1	4934	65.2	42
1	4987	66.15	42
1	5006	66.3	40
1	5011	66.35	46
1	5025	66.45	52
1	5045	66.65	51
1	5079	67.25	47
1	5088	67.3	39
1	5098	67.4	43
1	5109	67.55	43
1	5123	67.65	51
1	5137	67.75	55
1	5144	67.8	58
1	5168	68.1	51
1	5183	68.25	44
1	5202	68.4	46
1	5217	68.55	45
1	5235	68.65	50
1	5242	68.7	51
1	5257	68.85	50
1	5365	70.65	45
1	5381	70.75	50
1	5391	70.85	43
1	5420	71.4	45
1	5434	71.5	52
1	5444	71.6	58
1	5465	71.95	56
1	5490	72.4	54
1	5506	72.5	47
1	5528	72.8	48
1	5563	73.25	47
1	5578	73.4	42
1	5588	73.6	43
1	5600	73.7	45
1	5609	73.85	40
1	5659	74.95	32
1	5669	75.05	35
1	5729	75.95	34
1	5763	76.55	36
1	5770	76.6	36
1	5827	77.45	35
1	5844	77.6	34
1	5853	77.65	32
1	5867	77.85	32
1	5877	77.95	31
1	5889	78.05	37
1	5901	78.15	36
1	5924	78.5	35
1	5934	78.6	32
1	5960	79	30
1	5965	79.05	33
1	5983	79.25	33
1	6021	79.85	34
1	6052	80.4	31
1	6062	80.5	34
1	6069	80.55	31
1	6076	80.6	32
1	6093	80.85	33
1	6100	80.9	38
1	6105	80.95	43
1	6124	81.1	41
1	6151	81.35	38
1	6189	82.25	39
1	6204	82.4	43
1	6223	82.65	40
1	6247	83.05	41
1	6266	83.3	38
1	6275	83.35	39
1	6287	83.45	45
1	6297	83.55	49
1	6332	84.1	50
1	6337	84.15	57
1	6353	84.45	56
1	6367	84.65	54
1	6380	84.8	53
1	6444	85.8	53
1	6455	85.95	57
1	6473	86.15	55
1	6498	86.5	42
1	6511	86.65	39
1	6543	87.15	36
1	6583	87.65	33
1	6593	87.75	41
1	6639	88.25	42
1	6646	88.3	44
1	6654	88.4	51
1	6661	88.45	49
1	6687	88.65	46
1	6696	88.7	48
1	6708	88.8	52
1	6720	88.9	56
1	6743	89.15	54
1	6755	89.35	47
1	6770	89.5	48
1	6796	89.9	43
1	6801	89.95	38
1	6815	90.05	37
1	6822	90.1	38
1	6835	90.35	39
1	6864	90.8	30
1	6869	90.85	32
1	6889	91.35	32
1	6905	91.65	30
1	6924	91.9	27
1	6938	92.1	29
1	6950	92.2	34
1	6962	92.3	42
1	7036	93.4	45
1	7061	93.85	44
1	7089	94.35	45
1	7108	94.6	42
1	7144	95.1	45
1	7151	95.15	46
1	7222	96.3	44
1	7234	96.4	42
1	7251	96.55	32
1	7325	97.75	25
1	7343	97.95	23
1	7369	98.25	26
1	7376	98.3	27
1	7386	98.4	28
1	7398	98.5	36
1	7420	98.7	37
1	7430	98.8	40
1	7463	99.35	43
1	7475	99.45	44
1	7502	99.9	51
1	7511	99.95	48
1	7546	100.3	48
1	7653	102.05	47
1	7677	102.35	47
1	7699	102.65	39
1	7721	102.95	39
1	7741	103.15	38
1	7773	103.65	35
1	7797	103.95	38
1	7813	104.15	32
1	7830	104.4	34
1	7844	104.8	35
1	7857	104.95	34
1	7888	105.6	30
1	7917	106.35	29
1	7926	106.5	27
1	7954	106.7	26
1	7968	106.8	30
1	7973	106.85	30
1	7991	107.05	28
1	8008	107.2	28
1	8052	107.8	26
1	8088	108.5	27
1	8100	108.8	31
1	8115	108.95	31
1	8166	109.7	31
1	8255	110.85	33
1	8260	110.9	36
1	8265	110.95	42
1	8274	111	43
1	8284	111.1	46
1	8292	111.2	48
1	8306	111.4	47
1	8314	111.5	47
1	8430	113.2	46
1	8445	113.35	47
1	8457	113.45	54
1	8464	113.5	55
1	8479	113.65	47
1	8491	113.75	55
1	8504	113.9	50
1	8537	114.45	46
1	8551	114.55	47
1	8586	114.9	46
1	8596	115	54
1	8616	115.3	56
1	8648	115.6	48
1	8655	115.65	46
1	8660	115.7	50
1	8727	116.75	42
1	8749	117.15	46
1	8756	117.2	48
1	8768	117.3	45
1	8776	117.4	54
1	8817	118.25	45
1	8869	118.75	41
1	8887	118.85	41
1	8901	118.95	35
1	8913	119.05	36
1	8942	119.4	36
1	8955	119.55	34
1	8968	119.7	34
1	8978	119.8	35
1	9000	120	27
1	9017	120.25	26
1	9030	120.4	37
1	9064	120.7	37
1	9073	120.75	36
1	9080	120.8	28
1	9103	121.05	27
1	9108	121.1	29
1	9128	121.6	28
1	9142	121.8	34
1	9166	122.1	31
1	9187	122.45	36
1	9205	122.65	26
1	9245	123.05	23
1	9252	123.1	23
1	9296	123.5	27
1	9324	123.9	28
1	9339	124.05	28
1	9374	124.5	32
1	9393	124.95	24
1	9407	125.15	26
1	9420	125.3	28
1	9455	125.95	28
1	9473	126.15	29
1	9489	126.35	32
1	9499	126.45	40
1	9510	126.6	43
1	9522	126.7	51
1	9527	126.75	61
1	9536	126.8	64
1	9541	126.85	70
1	9549	126.95	64
1	9567	127.25	68
1	9591	127.55	70
1	9617	127.95	69
1	9622	128	64
1	9678	129.1	61
1	9690	129.4	50
1	9706	129.7	40
1	9721	129.85	40
1	9733	129.95	35
1	9738	130	40
1	9745	130.05	39
1	9781	130.65	37
1	9816	131	38
1	9823	131.05	33
1	9842	131.3	32
1	9901	132.25	32
1	9920	132.4	32
1	9927	132.45	30
1	9966	132.9	29
1	10006	133.5	26
1	10011	133.55	30
1	10023	133.75	30
1	10038	133.9	31
1	10047	134.05	34
1	10055	134.15	36
1	10070	134.3	38
1	10080	134.4	48
1	10085	134.45	61
1	10092	134.5	81
1	10097	134.55	87
1	10107	134.75	81
1	10124	134.9	89
1	10147	135.35	88
1	10155	135.45	88
1	10178	135.7	86
1	10215	136.25	83
1	10253	136.75	73
1	10267	136.85	65
1	10286	137	49
1	10291	137.05	50
1	10345	137.65	52
1	10363	137.75	53
1	10372	137.8	63
1	10386	137.9	61
1	10396	138	73
1	10406	138.1	84
1	10411	138.15	90
1	10426	138.3	84
1	10460	138.7	81
1	10477	138.95	74
1	10511	139.35	73
1	10520	139.4	67
1	10530	139.5	68
1	10537	139.55	84
1	10545	139.65	84
1	10559	139.75	73
1	10587	140.05	66
1	10602	140.2	65
1	10614	140.5	66
1	10644	140.9	64
1	10651	140.95	63
1	10661	141.15	58
1	10673	141.25	48
1	10686	141.4	32
1	10723	141.85	25
1	10750	142.4	23
1	10760	142.5	23
1	10770	142.6	23
1	10828	143.5	24
1	10840	143.6	32
1	10850	143.7	33
1	10868	143.9	34
1	10889	144.25	35
1	10898	144.3	34
1	10911	144.45	32
1	10938	144.8	35
1	10978	145.5	37
1	10996	145.7	38
1	11008	145.8	37
1	11025	145.95	32
1	11045	146.15	32
1	11078	146.6	33
1	11092	146.8	30
1	11105	146.95	29
1	11113	147.05	31
1	11125	147.15	34
1	11136	147.3	31
1	11165	147.85	31
1	11183	148.05	31
1	11232	148.9	30
1	11247	149.05	29
1	11270	149.3	28
1	11291	149.55	29
1	11302	149.8	31
1	11316	150	32
1	11351	150.65	26
1	11364	150.8	30
1	11381	150.95	31
1	11400	151.1	32
1	11418	151.3	33
1	11428	151.4	35
1	11471	152.05	38
1	11480	152.2	39
1	11494	152.3	46
1	11499	152.35	51
1	11564	153.3	55
1	11604	154	53
1	11612	154.1	58
1	11651	154.75	59
1	11680	155.2	60
1	11697	155.35	56
1	11738	155.9	51
1	11750	156	52
1	11783	156.55	46
1	11795	156.65	42
1	11809	156.75	47
1	11816	156.8	49
1	11826	156.9	49
1	11831	156.95	52
1	11845	157.15	52
1	11863	157.35	55
1	11896	157.9	58
1	11903	157.95	55
1	11923	158.25	54
1	11942	158.5	52
1	11950	158.6	46
1	11984	159.2	43
1	11996	159.3	36
1	12003	159.35	33
1	12011	159.45	29
1	12019	159.55	28
1	12035	159.85	27
1	12049	159.95	28
1	12054	160	31
1	12073	160.35	31
1	12084	160.5	32
1	12138	161.3	32
1	12168	161.6	32
1	12198	161.9	29
1	12219	162.25	29
1	12237	162.45	29
1	12259	162.95	27
1	12278	163.2	26
1	12290	163.3	21
1	12314	163.7	20
1	12327	163.85	18
1	12376	164.6	20
1	12383	164.65	19
1	12397	165.05	20
1	12415	165.25	26
1	12430	165.5	28
1	12437	165.55	31
1	12463	166.05	33
1	12473	166.15	33
1	12507	166.55	34
1	12519	166.65	44
1	12529	166.75	47
1	12540	166.9	47
1	12554	167	45
1	12581	167.35	38
1	12593	167.45	45
1	12607	167.55	49
1	12623	167.85	50
1	12628	167.9	57
1	12645	168.05	55
1	12677	168.65	48
1	12689	168.75	50
1	12725	169.05	49
1	12761	169.45	53
1	12784	169.7	55
1	12803	169.95	48
1	12829	170.25	45
1	12839	170.35	42
1	12864	170.7	36
1	12916	171.6	36
1	12937	172.15	33
1	13013	173.05	24
1	13024	173.2	22
1	13029	173.25	24
1	13044	173.5	21
1	13060	173.7	24
1	13073	173.85	22
1	13080	173.9	28
1	13085	173.95	31
1	13095	174.15	33
1	13120	174.5	34
1	13136	174.7	36
1	13162	175	39
1	13186	175.2	36
1	13193	175.25	38
1	13232	175.6	39
1	13242	175.7	49
1	13249	175.75	60
1	13281	176.15	56
1	13294	176.3	56
1	13309	176.45	55
1	13319	176.55	56
1	13335	176.85	58
1	13353	177.15	56
1	13362	177.2	55
1	13378	177.3	53
1	13386	177.4	51
1	13412	177.7	35
1	13430	177.8	42
1	13440	177.9	52
1	13503	178.75	52
1	13513	178.85	49
1	13520	178.9	43
1	13528	179	47
1	13535	179.05	50
1	13546	179.3	51
1	13562	179.5	47
1	13572	179.6	61
1	13587	179.85	52
1	13611	180.15	40
1	13621	180.25	43
1	13652	180.6	47
1	13664	180.9	47
1	13675	181.15	46
1	13694	181.4	46
1	13720	182	47
1	13733	182.15	43
1	13742	182.2	27
1	13747	182.25	33
1	13759	182.45	35
1	13802	183	35
1	13842	183.7	33
1	13874	184.2	35
1	13885	184.25	36
1	13895	184.35	35
1	13907	184.45	36
1	13951	185.45	32
1	13959	185.55	32
1	13978	185.9	35
1	13985	185.95	41
1	13998	186.2	41
1	14026	186.5	44
1	14038	186.6	42
1	14061	186.85	43
1	14094	187.3	41
1	14107	187.45	37
1	14126	187.6	42
1	14148	188	45
1	14168	188.5	40
1	14175	188.55	34
1	14182	188.6	35
1	14198	188.7	40
1	14203	188.75	44
1	14215	188.95	45
1	14230	189.2	52
1	14276	190	54
1	14286	190.1	51
1	14303	190.35	47
1	14311	190.45	44
1	14325	190.65	41
1	14351	191.15	42
1	14356	191.2	38
1	14368	191.3	35
1	14417	191.95	34
1	14465	192.65	27
1	14474	192.7	26
1	14486	192.8	32
1	14502	192.9	38
1	14507	192.95	47
1	14560	193.5	50
1	14565	193.55	56
1	14584	193.7	54
1	14595	193.85	50
1	14614	194.3	50
1	14684	195.4	52
1	14710	195.6	53
1	14741	196.05	47
1	14751	196.15	51
1	14805	196.85	43
1	14835	197.35	40
1	14854	197.6	33
1	14883	198.05	30
1	14918	198.7	33
1	14930	198.9	31
1	14946	199.2	30
1	14958	199.3	30
1	14973	199.55	32
1	14987	199.85	23
1	15009	200.15	24
1	15026	200.4	25
1	15045	200.75	24
1	15073	201.25	26
1	15097	201.45	23
1	15134	202	25
1	15148	202.1	31
1	15160	202.2	30
1	15180	202.4	25
1	15201	202.75	28
1	15233	203.25	26
1	15248	203.4	25
1	15283	203.85	28
1	15293	203.95	35
1	15311	204.15	38
1	15325	204.25	46
1	15330	204.3	52
1	15335	204.35	64
1	15354	204.7	65
1	15368	204.8	63
1	15390	205	65
1	15443	205.95	66
1	15450	206	64
1	15465	206.25	56
1	15476	206.5	55
1	15485	206.65	46
1	15494	206.8	34
1	15510	207.1	22
1	15558	207.8	23
1	15565	207.85	21
1	15581	208.05	23
1	15588	208.1	23
1	15613	208.35	23
1	15620	208.4	25
1	15652	208.7	24
1	15679	208.95	26
1	15708	209.2	25
1	15745	209.65	25
1	15754	209.8	27
1	15804	210.6	29
1	15819	210.85	26
1	15855	211.55	24
1	15875	211.85	26
1	15900	212.4	23
1	15916	212.6	27
1	15923	212.65	30
1	15928	212.7	36
1	15937	212.75	36
1	15947	212.85	44
1	15983	213.45	43
1	16053	215.25	46
1	16070	215.4	49
1	16075	215.45	51
1	16088	215.7	54
1	16098	215.8	61
1	16120	216.2	55
1	16135	216.35	49
1	16166	216.7	50
1	16186	217	42
1	16198	217.1	49
1	16206	217.2	48
1	16225	217.35	53
1	16239	217.45	63
1	16249	217.55	78
1	16276	217.8	68
1	16301	218.05	71
1	16331	218.35	72
1	16341	218.45	71
1	16349	218.55	69
1	16358	218.7	65
1	16368	218.8	64
1	16373	218.85	64
1	16402	219.4	50
1	16422	219.7	34
1	16496	221	35
1	16529	221.65	31
1	16561	222.15	30
1	16575	222.45	29
1	16605	222.75	30
1	16620	223	29
1	16639	223.15	35
1	16650	223.2	32
1	16662	223.3	35
1	16693	223.95	34
1	16769	224.95	30
1	16781	225.25	32
1	16855	226.55	36
1	16867	226.65	40
1	16877	226.75	49
1	16885	226.85	46
1	16892	226.9	38
1	16910	227.1	44
1	16917	227.15	39
1	16936	227.4	37
1	16947	227.55	40
1	16959	227.65	50
1	16971	227.75	51
1	16987	227.85	50
1	16992	227.9	44
1	17053	228.85	46
1	17099	229.35	46
1	17106	229.4	40
1	17124	229.6	45
1	17140	229.8	45
1	17147	229.85	44
1	17168	230.1	35
1	17182	230.2	36
1	17193	230.25	41
1	17203	230.35	49
1	17238	230.9	52
1	17253	231.05	51
1	17266	231.3	53
1	17297	231.95	50
1	17306	232.1	51
1	17313	232.15	50
1	17354	232.9	49
1	17361	232.95	45
1	17387	233.25	37
1	17397	233.35	27
1	17413	233.65	24
1	17463	234.35	28
1	17481	234.45	27
1	17515	234.95	25
1	17540	235.3	28
1	17557	235.45	27
1	17594	235.8	28
1	17604	235.9	32
1	17616	236	30
1	17655	236.65	29
1	17678	237.1	28
1	17688	237.2	29
1	17693	237.25	31
1	17719	237.75	35
1	17734	237.9	32
1	17767	238.25	31
1	17791	238.85	30
1	17801	238.95	27
1	17812	239	29
1	17853	239.55	26
1	17890	240.1	26
1	17904	240.2	29
1	17911	240.25	22
1	17922	240.4	21
1	17934	240.5	20
1	17943	240.55	21
1	17955	240.65	23
1	18050	242.1	22
1	18196	244.8	22
1	18209	244.95	23
1	18220	245.2	26
1	18249	245.55	23
1	18274	245.8	28
1	18281	245.85	28
1	18312	246.2	32
1	18326	246.3	35
1	18343	246.65	33
1	18353	246.75	36
1	18370	247	34
1	18386	247.1	41
1	18419	247.55	38
1	18478	248.3	37
1	18485	248.35	41
1	18498	248.6	39
1	18513	249.05	37
1	18537	249.45	36
1	18561	249.85	39
1	18571	249.95	33
1	18586	250.1	49
1	18604	250.5	41
1	18611	250.55	45
1	18629	250.75	47
1	18639	250.85	50
1	18644	250.9	55
1	18659	251.05	60
1	18676	251.2	60
1	18688	251.3	60
1	18697	251.35	58
1	18760	252	46
1	18770	252.1	59
1	18786	252.3	58
1	18805	252.55	56
1	18820	252.8	46
1	18839	253.05	43
1	18855	253.35	39
1	18874	253.6	39
1	18884	253.8	35
1	18899	253.95	35
1	18995	255.55	35
1	19007	255.65	25
1	19026	255.9	26
1	19041	256.05	29
1	19048	256.1	32
1	19053	256.15	36
1	19086	256.9	37
1	19106	257.2	36
1	19221	258.85	40
1	19229	258.95	50
1	19262	259.5	50
1	19287	259.85	51
1	19327	260.55	47
1	19337	260.75	41
1	19358	261.1	43
1	19384	261.3	36
1	19392	261.4	44
1	19416	261.9	45
1	19429	262.25	44
[...]
6	32973	442.9	213.916952203
6	32979	443	302.172145238
6	32987	443.2	13.039425385
6	32992	443.25	14.629991868
6	33011	443.5	15.727237466
6	33048	444.15	36.294608982
6	33088	444.65	15.118449623
6	33106	444.85	44.28828826
6	33122	445.05	43.58879071
6	33135	445.2	1.740046846
6	33141	445.3	1.115571108
6	33151	445.4	52.482673766
6	33163	445.5	9.651471283
6	33173	445.7	49.085749681
6	33176	445.75	89.455297499
6	33199	446	42.096046555
6	33237	446.6	81.912381603
6	33242	446.65	44.059897719
6	33266	447.05	26.043450518
6	33273	447.1	38.821032769
6	33276	447.15	63.889023924
6	33316	447.95	48.939992503
6	33334	448.15	103.09788874
6	33372	448.65	91.873493668
6	33388	448.85	73.545557832
6	33406	449.05	66.310980699
6	33411	449.1	43.061390636
6	33431	449.4	28.587681714
6	33447	449.6	47.540163557
6	33478	450.15	13.075325488
6	33494	450.45	12.501993
6	33514	450.75	65.528859838
6	33545	451	70.085686428
6	33548	451.05	58.060180101
6	33575	451.3	176.643366483
6	33592	451.45	304.727773149
6	33595	451.5	329.203216505
6	33598	451.55	162.747898335
6	33655	452.5	32.153506886
6	33663	452.7	44.761149002
6	33689	453.1	18.285358184
6	33706	453.25	21.867662498
6	33717	453.6	20.888395846
6	33736	453.85	30.275954297
6	33750	454.05	39.006356763
6	33768	454.25	40.222279402
6	33797	454.5	12.820663051
6	33805	454.6	90.489296535
6	33859	455.3	21.776286168
6	33883	455.5	95.910524942
6	33889	455.6	24.783080848
6	33925	456.2	8.323044326
6	33934	456.45	12.116108645
6	33975	457.1	28.952487371
6	33999	457.5	14.871089778
6	34048	457.95	147.684106287
6	34070	458.15	307.119579511
6	34073	458.2	239.181933848
6	34104	458.65	44.698026455
6	34132	458.95	99.945098033
6	34135	459	109.779635869
6	34145	459.1	14.384421226
6	34201	459.7	40.343398508
6	34227	459.9	159.030203202
6	34230	459.95	169.430042437
6	34233	460	133.406938466
6	34248	460.15	81.495723794
6	34251	460.2	111.336725258
6	34271	460.5	37.119163297
6	34276	460.55	20.305601366
6	34286	460.65	34.561511721
6	34327	461.1	138.526143322
6	34350	461.55	8.881312081
6	34424	462.65	88.785285283
6	34442	462.85	205.098073028
6	34455	463	44.02064587
6	34463	463.1	11.645873795
6	34466	463.15	55.692974057
6	34490	463.45	19.779439021
6	34495	463.5	43.801927926
6	34514	463.75	18.024941526
6	34528	463.95	56.297222145
6	34541	464.1	48.986013159
6	34546	464.15	7.93654308
6	34553	464.3	3.511920336
6	34578	464.65	46.132723524
6	34583	464.7	23.903314739
6	34590	464.75	48.297643777
6	34593	464.8	59.326274669
6	34598	464.85	10.446439504
6	34612	465.05	35.626108006
6	34623	465.2	83.480804666
6	34644	465.45	140.82114853
6	34649	465.5	44.325144377
6	34656	465.65	40.624642201
6	34669	465.9	75.573238826
6	34674	465.95	41.527603891
6	34689	466.2	86.6983472
6	34748	466.95	31.077352265
6	34826	467.85	27.079320559
6	34854	468.15	72.570424197
6	34865	468.3	37.623876135
6	34895	468.8	26.078540319
6	34989	470.3	6.698510872
6	34995	470.4	41.907063532
6	35029	470.7	43.561705344
6	35047	471.1	44.246295987
6	35052	471.15	6.489386418
6	35058	471.25	4.938898692
6	35070	471.35	95.912405166
6	35098	471.75	33.954870951
6	35150	472.45	39.825131415
6	35169	472.8	77.303609798
6	35179	472.9	92.642849076
6	35222	473.25	298.307014087
6	35258	473.55	354.314134848
6	35271	473.7	70.790947934
6	35274	473.75	53.746033148
6	35294	473.95	16.97839865
6	35330	474.35	48.134033776
6	35358	474.75	86.716737553
6	35366	474.85	112.626310071
6	35403	475.4	9.14395459
6	35456	476.05	89.397060365
6	35482	476.25	158.581885256
6	35485	476.3	156.974817426
6	35488	476.35	195.842818737
6	35491	476.4	192.429708031
6	35516	476.75	66.02029201
6	35519	476.8	74.545617849
6	35529	476.9	172.942350162
6	35535	477	14.08904266
6	35556	477.15	138.070232513
6	35559	477.2	50.899103224
6	35567	477.3	47.815176127
6	35570	477.35	76.394621639
6	35601	477.9	1.652726478
6	35618	478.15	96.685723967
6	35621	478.2	85.974085943
6	35677	479.3	73.768654003
6	35711	479.8	4.262041896
6	35755	480.4	14.35514724
6	35760	480.45	46.525329873
6	35779	480.6	64.005618629
6	35791	480.7	64.995292925
6	35832	481.55	62.371052221
6	35850	481.75	33.653030269
6	35884	482.25	17.179642455
6	35903	482.6	95.508062772
6	35930	482.85	263.720104121
6	35933	482.9	116.322994644
6	35946	483.05	55.270043893
6	35954	483.15	12.44112528
6	35971	483.5	42.392602077
6	36004	483.75	219.499191501
6	36009	483.8	204.513646757
6	36012	483.85	68.706296877
6	36017	483.9	32.226568197
6	36022	483.95	11.42706559
6	36029	484.1	47.598656019
6	36034	484.15	31.824742661
6	36044	484.25	41.669590188
6	36051	484.4	45.431736659
6	36058	484.55	35.71566797
6	36095	485.1	20.360369277
6	36102	485.25	40.662953963
6	36116	485.55	31.340577953
6	36130	485.85	14.45542698
6	36142	485.95	20.796724086
6	36162	486.25	1.04659727
6	36167	486.3	43.491257061
6	36189	486.6	95.085640233
6	36199	486.7	93.533328401
6	36208	486.85	29.192126319
6	36213	486.9	63.113469587
6	36216	486.95	56.053148135
6	36221	487	4.178213234
6	36234	487.25	8.185107836
6	36244	487.55	11.372806935
6	36249	487.6	15.549879179
6	36257	487.8	42.779039376
6	36282	488.35	67.96138445
6	36324	489.15	18.671088667
6	36337	489.4	84.138279425
6	36378	489.75	137.98924912
6	36389	489.9	60.551112615
6	36408	490.05	98.87436924
6	36420	490.15	150.01984921
6	36425	490.2	138.045756692
6	36442	490.35	180.183590428
6	36445	490.4	184.73649705
6	36450	490.45	33.872873906
6	36461	490.6	46.725479582
6	36479	490.8	17.852464618
6	36508	491.05	57.765893874
6	36530	491.25	195.69698105
6	36551	491.5	13.786707072
6	36575	491.7	80.09821436
6	36606	491.95	308.849262097
6	36619	492.1	224.908804088
6	36622	492.15	206.452887099
6	36631	492.4	43.324961455
6	36676	493.15	32.793068677
6	36725	493.7	36.437549497
6	36728	493.75	60.086350397
6	36744	494.15	14.650795424
6	36755	494.5	0.727371667
6	36769	494.8	12.619228263
6	36784	495.05	29.424747208
6	36794	495.15	103.417004028
6	36825	495.4	84.67174356
6	36861	496.1	23.543598295
6	36889	496.4	6.551961798
6	36917	496.7	26.174992642
6	36934	496.95	28.733634191
6	36939	497	4.945498039
6	36947	497.1	43.040511524
6	36955	497.2	125.409872985
6	36960	497.25	33.035711115
6	36986	497.55	48.891340671
6	36991	497.6	27.020946964
6	37023	497.9	5.111294729
6	37061	498.7	45.164070026
6	37073	498.8	76.804963807
6	37076	498.85	89.698885027
6	37096	499.25	44.339948242
6	37103	499.3	35.330797841
6	37106	499.35	81.41036084
6	37113	499.5	2.807849813
6	37147	500	58.210404254
6	37164	500.15	26.385226032
6	37200	500.55	192.411112276
6	37224	500.75	98.473428114
6	37232	500.85	176.817191636
6	37257	501.1	76.42696797
6	37260	501.15	89.967687278
6	37285	501.6	37.46973915
6	37321	502.4	8.149139719
6	37347	502.7	79.989066897
6	37358	502.85	93.798806801
6	37395	503.2	24.341492839
6	37411	503.5	49.613304467
6	37441	503.8	3.165624553
6	37483	504.4	17.615951906
6	37502	504.75	35.666753661
6	37526	504.95	183.964326305
6	37535	505.2	24.544629215
6	37542	505.35	14.28752159
6	37616	506.25	15.200497238
6	37624	506.35	2.994366031
6	37647	506.7	11.183908572
6	37659	506.8	42.477358599
6	37666	506.85	73.016599472
6	37671	506.9	94.312826297
6	37676	506.95	134.502204078
6	37679	507	143.219757817
6	37689	507.1	159.386948724
6	37692	507.15	136.99256658
6	37736	507.85	40.700673921
6	37739	507.9	88.343496693
6	37754	508.05	57.55909867
6	37764	508.15	111.244065393
6	37767	508.2	112.073294808
6	37770	508.25	101.787491566
6	37776	508.35	37.044532371
6	37805	508.6	148.739755737
6	37836	508.95	30.573636554
6	37843	509	12.816284142
6	37846	509.05	50.185262621
6	37858	509.25	75.499132791
6	37885	509.5	57.113388555
6	37907	509.8	93.206507573
6	37928	510.05	7.405205759
6	37933	510.1	42.921877761
6	37956	510.55	94.409706342
6	37976	510.75	73.705423214
6	37981	510.8	13.013600847
6	37986	510.85	4.36306718
6	38057	511.8	21.387304953
6	38064	511.95	45.556428342
6	38096	512.55	47.88406599
6	38123	512.8	25.643912139
6	38140	513.05	51.273471568
6	38143	513.1	62.317700377
6	38148	513.15	21.510541949
6	38162	513.45	57.526881246
6	38167	513.5	21.058660788
6	38174	513.55	40.84964877
6	38193	513.7	150.158865244
6	38198	513.75	88.480400326
6	38210	513.85	148.011423801
6	38217	513.9	137.10128962
6	38220	513.95	85.390569752
6	38223	514	102.270163041
6	38229	514.1	18.210291516
6	38241	514.2	77.716639886
6	38262	514.35	41.18711821
6	38307	514.7	365.484611378
6	38322	514.85	504.808447406
6	38325	514.9	207.475525347
6	38357	515.3	34.989972118
6	38393	515.8	32.274875299
6	38417	516.3	43.98711712
6	38427	516.4	99.196573733
6	38430	516.45	116.022050144
6	38461	517	11.743843513
6	38471	517.1	68.690604555
6	38476	517.15	19.771324065
6	38488	517.25	83.599790553
6	38514	517.45	22.677794093
6	38539	517.8	45.975879119
6	38554	517.95	165.119917883
6	38557	518	113.079592063
6	38570	518.15	16.134278994
6	38619	518.7	96.564639461
6	38650	518.95	184.896813992
6	38656	519.05	127.814944735
6	38664	519.15	223.648778722
6	38688	519.35	128.378155533
6	38708	519.55	67.130898284
6	38726	519.75	18.192749252
6	38744	520.15	39.187576776
6	38767	520.6	26.403768359
6	38776	520.85	16.273867351
6	38796	521.25	15.910046081
6	38815	521.5	0.132318929
6	38827	521.7	67.077600187
6	38847	521.9	18.311880279
6	38852	521.95	29.718631867
6	38908	522.85	18.066974675
6	38922	523.05	49.685484651
6	38925	523.1	73.216065257
6	38952	523.35	58.265027088
6	38988	523.85	1.650458607
6	39029	524.2	78.408803968
6	39035	524.3	137.683901646
6	39045	524.4	217.727846921
6	39066	524.95	6.291190855
6	39071	525	3.10413359
6	39084	525.25	30.024645743
6	39119	525.7	62.423758178
6	39168	526.35	22.730152432
6	39202	526.65	294.256414873
6	39205	526.7	149.157519605
6	39211	526.8	11.278295413
6	39225	526.9	90.080979572
6	39254	527.15	259.518757646
6	39281	527.7	20.182605479
6	39303	527.9	160.830893583
6	39306	527.95	191.870600431
6	39313	528.1	7.711900197
6	39342	528.45	102.698556962
6	39357	528.6	132.070552405
6	39367	528.7	182.84856672
6	39370	528.75	90.016323793
6	39376	528.85	43.55045331
6	39390	529.05	29.651875513
6	39405	529.3	17.351508953
6	39410	529.35	7.711291047
6	39445	529.8	35.21822071
6	39468	530.05	105.344400697
6	39478	530.15	46.345370652
6	39485	530.3	40.467716678
6	39491	530.4	3.342718969
6	39517	530.8	14.869937826
6	39572	531.45	8.002907277
6	39613	531.8	198.042741337
6	39631	532	267.011879713
6	39634	532.05	285.381846924
6	39648	532.25	60.325775026
6	39654	532.35	47.269108292
6	39696	532.85	0.324871068
6	39715	533	69.196912233
6	39720	533.05	29.630955274
6	39746	533.35	91.229000968
6	39786	533.95	3.339160452
6	39806	534.25	24.374711015
6	39848	534.85	39.46811715
6	39891	535.4	67.602916989
6	39902	535.65	35.42339858
6	39913	535.8	83.882480761
6	39918	535.85	46.196784139
6	39965	536.6	9.462034191
6	39992	537.05	42.004755378
6	39995	537.1	87.270339276
6	40000	537.15	2.43312222
6	40012	537.25	62.745582183
6	40029	537.4	73.166152586
6	40034	537.45	25.382329947
6	40048	537.65	20.129635181
6	40053	537.7	9.059304844
6	40076	538.25	8.415172997
6	40113	538.7	93.237495584
6	40116	538.75	67.061482974
6	40121	538.8	29.159133572
6	40156	539.05	100.57790082
6	40192	539.45	44.987364934
6	40214	539.85	21.655552365
6	40226	539.95	33.893284686
6	40240	540.15	46.858808733
6	40277	540.6	44.098089426
6	40291	540.7	49.079108853
6	40301	540.8	143.391863134
6	40320	541.05	88.734317979
6	40367	541.4	422.931770011
6	40381	541.5	239.000193595
6	40384	541.55	285.520289617
6	40387	541.6	334.628485663
6	40402	541.75	347.68627775
6	40405	541.8	377.749320976
6	40436	542.15	96.639161839
6	40464	542.45	14.282008053
6	40495	542.8	41.719947147
6	40548	543.75	49.452981994
6	40581	544.2	121.69365405
6	40608	544.55	40.637354345
6	40618	544.65	17.93833934
6	40631	544.8	45.044940125
6	40664	545.35	66.899253535
6	40683	545.5	210.007773989
6	40695	545.6	174.744943659
6	40698	545.65	154.395621648
6	40706	545.75	185.731017627
6	40711	545.8	44.645489513
6	40745	546.1	128.76806859
6	40760	546.25	175.660576068
6	40766	546.35	256.891262895
6	40778	546.45	73.828158474
6	40793	546.6	188.642202349
6	40830	546.85	82.728541642
6	40836	546.95	181.104975228
6	40839	547	219.660215528
6	40842	547.05	263.012306171
6	40850	547.15	349.170913112
6	40871	547.5	55.235281419
6	40890	547.65	110.67739034
6	40921	548	64.139809666
6	40969	548.6	11.292969027
6	41001	548.9	43.683533208
6	41004	548.95	77.787235841
6	41018	549.15	52.770776878
6	41053	549.8	47.745193085
6	41073	550	47.58988141
6	41134	550.85	57.810746601
6	41161	551.5	19.872779714
6	41178	551.85	46.164386851
6	41246	552.65	45.968623164
6	41279	553.2	11.518981917
6	41401	554.7	18.866320965
6	41413	554.8	72.254556621
6	41418	554.85	19.859305527
6	41439	555.1	95.859758656
6	41465	555.6	3.533778276
6	41519	556.4	10.547070639
6	41548	556.85	35.320424378
6	41556	556.95	132.051024887
6	41569	557.1	63.539608798
6	41578	557.35	37.731539033
6	41592	557.55	0.730810977
6	41602	557.65	5.843319398
6	41648	558.15	78.080774552
6	41661	558.3	175.451586629
6	41686	558.55	241.057614564
6	41691	558.6	249.440103351
6	41713	558.8	249.62283591
6	41727	559	48.799868245
6	41742	559.15	176.762144846
6	41784	559.85	35.296768664
6	41795	560.1	35.698502855
6	41823	560.7	43.865670557
6	41839	560.9	30.072163486
6	41849	561	116.529855403
6	41862	561.25	25.114336293
6	41884	561.45	110.985668929
6	41917	561.9	12.821333584
6	41935	562.2	24.684074899
6	41942	562.35	10.558078213
6	41960	562.55	93.439001695
6	41977	562.7	234.480136765
6	41980	562.75	227.026704259
6	41996	563.05	10.952302751
6	42009	563.3	45.738802518
6	42024	563.45	1.359630324
6	42054	563.85	22.960544231
6	42057	563.9	62.174343763
6	42085	564.4	0.719218902
6	42118	564.75	20.114345451
6	42131	564.9	51.840585588
6	42162	565.25	194.349195657
6	42172	565.35	12.296873568
6	42177	565.4	9.981440582
6	42198	565.75	75.010538701
6	42203	565.8	14.483478827
6	42227	566.1	67.461810154
6	42230	566.15	81.162245809
6	42247	566.3	38.233848475
6	42256	566.55	39.206246331
6	42269	566.7	43.451947577
6	42315	567.6	24.185280428
6	42337	567.8	69.716463688
6	42345	567.9	116.93335898
6	42348	567.95	159.305721189
6	42372	568.35	4.597942828
6	42391	568.5	104.477591857
6	42406	568.65	178.829553693
6	42409	568.7	206.436630049
6	42424	568.85	109.628702031
6	42430	568.95	19.484791328
6	42441	569.3	32.887639629
6	42454	569.45	93.098771256
6	42504	570.25	30.607082435
6	42553	570.6	22.085308347
6	42570	570.75	169.045819137
6	42573	570.8	204.107246739
6	42584	570.95	22.703572379
6	42596	571.15	41.169808477
6	42613	571.6	48.826446776
6	42630	571.75	92.444433662
6	42665	572	78.35552251
6	42680	572.15	42.430980534
6	42691	572.3	132.785554836
6	42717	572.7	6.534836804
6	42723	572.8	40.59795408
6	42766	573.75	15.871500141
6	42773	573.8	45.164521965
6	42776	573.85	55.748826058
6	42799	574.3	1.956442319
6	42820	574.45	101.351469444
6	42823	574.5	79.178045321
6	42840	574.85	38.182461992
6	42847	575	35.206723977
6	42861	575.2	41.444668942
6	42888	575.55	25.297262218
6	42918	575.95	70.714010536
6	42921	576	51.285795812
6	42954	576.55	24.085109491
6	42975	576.9	115.135803937
6	43000	577.25	97.78366671
6	43022	577.45	121.775183984
6	43048	577.75	91.413776266
6	43096	578.35	38.205977452
6	43108	578.45	90.541626311
6	43135	579	9.777905587
6	43146	579.15	70.482073861
6	43172	579.45	72.868349619
6	43191	579.8	80.303614563
6	43198	579.95	36.479494912
6	43227	580.3	42.267162311
6	43254	580.65	25.345284723
6	43306	581.25	96.557615995
6	43321	581.4	143.670558983
6	43324	581.45	88.416392967
6	43333	581.6	18.642428251
6	43336	581.65	56.942404894
6	43345	581.8	34.475353059
6	43348	581.85	70.794744102
6	43378	582.15	198.303798464
6	43425	582.5	361.709263872
6	43428	582.55	382.3879492
6	43431	582.6	370.069383076
6	43434	582.65	239.622315253
6	43444	582.75	300.467198058
6	43461	583.1	87.45017528
6	43468	583.15	126.598048439
6	43473	583.2	79.541404282
6	43483	583.3	176.030755267
6	43493	583.4	208.885232737
6	43496	583.45	50.82631229
6	43537	584	3.202779341
6	43556	584.25	56.227984154
6	43578	584.65	46.258327301
6	43585	584.8	28.735164929
6	43597	584.9	74.367581802
6	43609	585.1	35.095637153
6	43640	585.45	36.810872699
6	43693	586.1	44.128266615
6	43715	586.3	143.913358297
6	43744	586.55	390.552008359
6	43780	586.85	511.691001935
6	43783	586.9	300.803991706
6	43798	587.05	381.599430834
6	43801	587.1	269.74046196
6	43836	587.45	76.698597432
6	43884	588.15	15.465488784
6	43902	588.35	63.143451751
6	43947	589	34.565992335
6	43960	589.15	173.452557407
6	43996	589.75	6.629494929
6	44042	590.65	35.539900473
6	44050	590.75	131.210470787
6	44082	591.05	95.153807657
6	44115	591.6	42.056924279
6	44135	592	1.409488251
6	44156	592.25	33.525318603
6	44159	592.3	76.586440999
6	44176	592.45	41.959354558
6	44207	592.7	220.871619154
6	44248	593.45	17.546743931
6	44256	593.55	23.224469022
6	44259	593.6	50.438343677
6	44264	593.65	16.283335976
6	44269	593.7	18.511529091
6	44285	594	81.352414358
6	44338	594.75	23.108428657
6	44344	594.85	20.154008944
6	44379	595.3	19.91806062
6	44483	596.9	64.852254502
6	44489	597	141.187776811
6	44494	597.05	8.388068211
6	44525	597.4	4.411451575
6	44540	597.55	17.253305257
6	44543	597.6	50.205572381
6	44553	597.9	17.075821374
6	44560	598.05	23.663846373
6	44585	598.4	54.479997272
6	44686	599.65	19.627085804
6	44719	600.3	45.496312884
6	44741	600.5	181.634415332
6	44749	600.6	148.28817609
6	44759	600.7	69.83970273
6	44794	601.05	98.796816316
6	44827	601.3	257.172578601
6	44858	601.55	349.241403671
6	44871	601.7	441.767629428
6	44881	601.8	492.774280913
6	44884	601.85	461.328786357
6	44887	601.9	498.914615155
6	44890	601.95	392.509204603
6	44916	602.25	92.005310753
6	44935	602.4	112.805411166
6	44952	602.65	39.384024782
6	44958	602.75	43.953518994
6	44987	603	199.799307284
6	45025	603.3	209.980189057
6	45035	603.4	294.252564873
6	45040	603.45	236.913050429
6	45045	603.5	212.141922186
6	45048	603.55	245.28894005
6	45058	603.65	249.481141383
6	45061	603.7	231.958241783
6	45064	603.75	152.980510569
6	45090	603.95	144.777441342
6	45093	604	57.38648742
6	45100	604.15	10.623319242
6	45106	604.25	24.817558146
6	45129	604.5	67.520657338
6	45164	604.95	43.067240607
6	45169	605	26.290605809
6	45179	605.1	24.131193636
6	45193	605.4	11.812072161
6	45208	605.55	148.933649487
6	45257	606.2	37.122746404
6	45263	606.3	3.578404838
6	45272	606.45	9.669958976
6	45275	606.5	57.250598721
6	45308	607.15	65.9159635
6	45333	607.4	115.409486354
6	45341	607.5	31.434687496
6	45351	607.6	124.705032683
6	45354	607.65	122.320312511
6	45380	608.05	13.974943227
6	45413	608.4	3.262149782
6	45440	608.65	138.015145133
6	45470	609.15	39.778843583
6	45485	609.3	45.817785831
6	45490	609.35	40.886420822
6	45528	609.85	37.428889713
6	45531	609.9	68.623376646
6	45552	610.25	19.039698472
6	45557	610.3	2.032872774
6	45580	610.55	141.258656147
6	45623	610.9	19.86153031
6	45662	611.45	10.777804264
6	45695	612	12.855746268
6	45726	612.55	20.176360722
6	45738	612.85	10.823744173
6	45748	612.95	110.402889018
6	45760	613.15	46.09584981
6	45794	613.65	30.452027687
6	45801	613.8	5.470957549
6	45821	614.1	62.874274407
6	45824	614.15	63.458338252
6	45835	614.3	46.040381896
6	45840	614.35	44.218914283
6	45882	614.65	252.804556136
6	45895	614.8	264.23965218
6	45898	614.85	247.931837114
6	45913	615	388.344003589
6	45927	615.1	94.555447354
6	45937	615.2	167.553536699
6	45950	615.35	12.700522029
6	45975	615.6	169.242168698
6	45980	615.65	44.616925846
6	45990	615.75	34.351194498
6	45995	615.8	29.022677592
6	46012	616.05	15.170266246
6	46075	616.7	13.167331322
6	46088	616.85	64.602747544
6	46132	617.45	7.923226511
6	46137	617.5	33.848429355
6	46156	617.75	1.353760131
6	46225	618.5	23.552353443
6	46282	619.55	29.092549964
6	46303	619.7	158.311585708
6	46311	619.8	240.64002132
6	46319	619.9	236.080315568
6	46350	620.45	37.610801207
6	46353	620.5	68.826312001
6	46382	620.75	149.512432114
6	46388	620.85	228.026592742
6	46401	621.1	44.333161703
6	46439	621.6	60.063155216
6	46486	622.15	97.254316284
6	46499	622.3	96.53896456
6	46537	622.9	48.371778181
6	46569	623.2	123.339541011
6	46584	623.35	182.807516808
6	46587	623.4	74.719782824
6	46595	623.5	164.097831751
6	46603	623.6	15.316412189
6	46606	623.65	64.405836687
6	46625	623.9	10.415796872
6	46641	624.3	46.185841323
6	46654	624.45	40.29819586
6	46679	624.8	72.270791109
6	46682	624.85	107.497786408
6	46697	625	11.517140012

