version 2
run Sched1-0-20231205-21:22:01-16396
attr configname Sched1
attr datetime 20231205-21:22:01
attr experiment Sched1
attr inifile omnetpp.ini
attr iterationvars ""
attr iterationvarsf ""
attr measurement ""
attr network Network
attr processid 16396
attr repetition 0
attr replication #0
attr resultdir results
attr runnumber 0
attr seedset 0
param *.nrHP 2
param *.nrMP 3
param *.nrLP 2
param Network.sources[*].sendIaTime "0.2 ms"

vector 0 Network.sink "" ETV
vector 1 Network.sink "" ETV
vector 2 Network.sink "" ETV
0	18	0.05	50
0	21	0.1	100
0	35	0.2	40.825099087
0	45	0.3	120.287922303
0	65	0.4	130.615401753
0	70	0.45	74.886637024
0	84	0.55	165.511562376
0	92	0.65	263.209703205
0	108	0.75	299.538475037
0	117	0.8	15.096234972
0	129	0.9	111.011117292
0	137	1	119.161489841
0	149	1.1	52.52910639
0	161	1.2	18.004638114
0	193	1.5	44.350663208
0	198	1.55	69.17578132
0	208	1.65	145.204223135
0	226	1.75	70.739984127
0	242	1.85	114.130240875
0	249	1.9	57.017096829
0	265	2	36.467048108
0	286	2.15	39.959059904
0	295	2.2	44.190860295
0	323	2.4	15.163069355
0	328	2.45	52.740011262
0	350	2.65	32.957517752
0	359	2.7	35.716176535
0	375	2.8	114.376055648
0	391	2.9	159.923783678
0	405	3	181.301272217
0	410	3.05	177.163743694
0	422	3.15	255.636722063
0	434	3.25	144.071439393
0	450	3.35	185.65533274
0	457	3.4	110.067016542
0	469	3.5	175.441525313
0	483	3.6	252.050443355
0	495	3.7	127.416783048
0	500	3.75	40.401902982
0	522	3.95	33.350451505
0	537	4.1	26.438119125
0	570	4.35	12.286191347
1	24	0.15	150
1	50	0.35	350
1	77	0.5	500
1	97	0.7	515.355373706
1	124	0.85	598.813848391
1	144	1.05	701.788215647
1	152	1.15	778.079157585
1	167	1.3	907.723513573
1	172	1.35	931.156387819
1	184	1.45	927.834243923
1	205	1.6	947.057730479
1	231	1.8	1067.377164294
1	258	1.95	1202.640093201
1	279	2.1	1334.407887976
1	300	2.25	1433.374273178
1	312	2.35	1375.485386314
1	331	2.5	1495.239215581
1	341	2.6	1427.406913309
1	370	2.75	1575.87674049
1	398	2.95	1649.065078773
1	415	3.1	1687.176363993
1	441	3.3	1875.279186848
1	460	3.45	1954.828829078
1	490	3.65	2090.183479755
1	507	3.8	2209.237543655
1	517	3.9	2200.542454208
1	527	4	2271.97199205
1	546	4.15	2405.070611962
1	560	4.25	2499.582759923
1	563	4.3	2488.126689492
1	579	4.4	2552.976995857
2	38	0.25	250
2	87	0.6	600
2	132	0.95	792.559772004
2	164	1.25	859.690932823
2	175	1.4	912.970511833
2	217	1.7	1166.766961163
2	274	2.05	1412.43568917
2	309	2.3	1598.880390583
2	336	2.55	1812.661287367
2	382	2.85	2030.345688118
2	427	3.2	2137.206537728
2	476	3.55	2100.311702383
2	514	3.85	2173.123914041
2	530	4.05	2218.1621639
2	549	4.2	2070.51119875
2	582	4.45	2194.239818444

