file 6964079 1710876215                                         
version 2
run Sched1-0-20240319-21:22:15-14552
attr configname Sched1
attr datetime 20240319-21:22:15
attr experiment Sched1
attr inifile omnetpp.ini
attr iterationvars ""
attr iterationvarsf ""
attr measurement ""
attr network Network
attr processid 14552
attr repetition 0
attr replication #0
attr resultdir results
attr runnumber 0
attr seedset 0
param *.nrHP 2
param *.nrMP 3
param *.nrLP 2
param Network.sources[*].sendIaTime "0.2 ms"

vector 0 Network.sink "" ETV
vector 1 Network.flc "delay vector" ETV
vector 2 Network.flc "result nescalat" ETV
vector 3 Network.flc "res scalat" ETV
vector 4 Network.flc "weight vector" ETV
vector 5 Network.sink "" ETV
vector 6 Network.sink "" ETV
0	718 997049 18 493408 0.05 3281.85 32768 0.001431767 877.071477099 8178292.8921097 3067530288.3041
1	997767 678955 19 493409 0.05 3281.85 32768 22 784 8162046 2588388188
2	1676722 634822 19 493409 0.05 3281.85 32768 1 64 980877 58222405
3	2311544 663166 19 493409 0.05 3281.85 32768 -15 15 -36046 6585040
4	2974710 634392 19 493409 0.05 3281.85 32768 2 31 494875 13139209
0	3609102 482574 493437 727372 3282 4842.35 15575 0.022029511 870.649587017 3889986.3355393 1477229660.3192
1	4091676 331496 493438 727373 3282 4842.35 15575 21 764 3882258 1237727322
2	4423172 310603 493438 727373 3282 4842.35 15575 1 64 466243 27637441
3	4733775 323996 493438 727373 3282 4842.35 15575 -15 15 -17063 3121193
4	5057771 310406 493438 727373 3282 4842.35 15575 2 31 235557 6244219
5	5368177 1057322 23 727365 0.1 4842.3 32133 100 2732794.9028786 43817626233.439 7.9556874591844e+016
6	6425499 538578 42 727353 0.25 4842.2 16371 250 3195340.593796 26306468358.83 5.6180238814358e+016

