version 2
run Sched1-0-20240310-15:37:50-19036
attr configname Sched1
attr datetime 20240310-15:37:50
attr experiment Sched1
attr inifile omnetpp.ini
attr iterationvars ""
attr iterationvarsf ""
attr measurement ""
attr network Network
attr processid 19036
attr repetition 0
attr replication #0
attr resultdir results
attr runnumber 0
attr seedset 0
param *.nrHP 2
param *.nrMP 2
param *.nrLP 2
param Network.sources[*].sendIaTime "0.5 ms"

vector 0 Network.flc "delay vector" ETV
vector 1 Network.flc "result nescalat" ETV
vector 2 Network.flc "res scalat" ETV
vector 3 Network.flc "weight vector" ETV
vector 4 Network.sink "" ETV
vector 5 Network.sink "" ETV
vector 6 Network.sink "" ETV
0	15	0	15
0	79	1	15
0	151	2	15
0	225	3	15
0	271	4	15
0	339	5	15
0	423	6	15
0	503	7	15
0	573	8	15
0	653	9	15
0	721	10	15
0	791	11	15
0	853	12	15
0	913	13	15
0	987	14	15
0	1057	15	15
0	1117	16	15
0	1213	17	15
0	1279	18	15
0	1337	19	15
0	1399	20	15
0	1461	21	15
0	1539	22	15
0	1625	23	15
0	1695	24	15
0	1761	25	15
0	1819	26	15
0	1885	27	15
0	1957	28	15
0	2015	29	15
0	2091	30	15
0	2171	31	15
0	2219	32	15
0	2297	33	15
0	2375	34	15
0	2433	35	15
0	2505	36	15
0	2565	37	15
0	2643	38	15
0	2705	39	15
0	2775	40	15
0	2849	41	15
0	2949	42	15
0	3015	43	15
0	3103	44	15
0	3165	45	15
0	3225	46	15
0	3265	47	15
0	3331	48	15
0	3385	49	15
0	3465	50	15
0	3529	51	15
0	3573	52	15
0	3669	53	15
0	3741	54	15
0	3829	55	15
0	3911	56	15
0	4005	57	15
0	4073	58	15
0	4153	59	15
0	4247	60	15
0	4305	61	15
0	4369	62	15
0	4449	63	15
0	4499	64	15
0	4567	65	15
0	4617	66	15
0	4705	67	15
0	4787	68	15
0	4887	69	15
0	4947	70	15
0	5017	71	15
0	5077	72	15
0	5145	73	15
0	5215	74	15
0	5259	75	15
0	5329	76	15
0	5381	77	15
0	5469	78	15
0	5537	79	15
0	5603	80	15
0	5671	81	15
0	5739	82	15
0	5795	83	15
0	5869	84	15
0	5941	85	15
0	5997	86	15
0	6065	87	15
0	6143	88	15
0	6245	89	15
0	6313	90	15
0	6373	91	15
0	6423	92	15
0	6501	93	15
0	6559	94	15
0	6623	95	15
0	6679	96	15
0	6757	97	15
0	6827	98	15
0	6913	99	15
0	6979	100	15
0	7061	101	15
0	7109	102	15
0	7185	103	15
0	7255	104	15
0	7311	105	15
0	7355	106	15
0	7425	107	15
0	7507	108	15
0	7551	109	15
0	7613	110	15
0	7701	111	15
0	7773	112	15
0	7841	113	15
0	7919	114	15
0	8001	115	15
0	8087	116	15
0	8137	117	15
0	8199	118	15
0	8293	119	15
0	8377	120	15
0	8463	121	15
0	8521	122	15
0	8597	123	15
0	8687	124	15
0	8747	125	15
0	8805	126	15
0	8883	127	15
0	8945	128	15
0	8997	129	15
0	9053	130	15
0	9127	131	15
0	9195	132	15
0	9281	133	15
0	9339	134	15
0	9411	135	15
0	9475	136	15
0	9557	137	15
0	9657	138	15
0	9733	139	15
0	9821	140	15
0	9889	141	15
0	9959	142	15
0	10013	143	15
0	10093	144	15
0	10161	145	15
0	10235	146	15
0	10309	147	15
0	10371	148	15
0	10431	149	15
0	10501	150	15
0	10569	151	15
0	10643	152	15
0	10707	153	15
0	10773	154	15
0	10835	155	15
0	10911	156	15
0	10985	157	15
0	11051	158	15
0	11105	159	15
0	11181	160	15
0	11237	161	15
0	11329	162	15
0	11379	163	15
0	11449	164	15
0	11501	165	15
0	11559	166	15
0	11645	167	15
0	11721	168	15
0	11797	169	15
0	11879	170	15
0	11949	171	15
0	11999	172	15
0	12077	173	15
0	12143	174	15
0	12211	175	15
0	12311	176	15
0	12373	177	15
0	12467	178	15
0	12543	179	15
0	12605	180	15
0	12669	181	15
0	12717	182	15
0	12791	183	15
0	12851	184	15
0	12905	185	15
0	12965	186	15
0	13037	187	15
0	13113	188	15
0	13173	189	15
0	13229	190	15
0	13285	191	15
0	13361	192	15
0	13443	193	15
0	13531	194	15
0	13583	195	15
0	13659	196	15
0	13737	197	15
0	13793	198	15
0	13849	199	15
0	13909	200	15
0	13961	201	15
0	14035	202	15
0	14111	203	15
0	14185	204	15
0	14267	205	15
0	14325	206	15
0	14369	207	15
0	14437	208	15
0	14541	209	15
0	14625	210	15
0	14677	211	15
0	14731	212	15
0	14795	213	15
0	14843	214	15
0	14873	215	15
0	14943	216	15
0	15011	217	15
0	15109	218	15
0	15181	219	15
0	15247	220	15
0	15297	221	15
0	15353	222	15
0	15415	223	15
0	15485	224	15
0	15561	225	15
0	15607	226	15
0	15679	227	15
0	15767	228	15
0	15831	229	15
0	15917	230	15
0	15997	231	15
0	16047	232	15
0	16109	233	15
0	16175	234	15
0	16253	235	15
0	16341	236	15
0	16397	237	15
0	16457	238	15
0	16523	239	15
0	16593	240	15
0	16687	241	15
0	16741	242	15
0	16807	243	15
0	16863	244	15
0	16913	245	15
0	16989	246	15
0	17057	247	15
0	17129	248	15
0	17189	249	15
0	17251	250	15
0	17319	251	15
0	17417	252	15
0	17485	253	15
0	17545	254	15
0	17599	255	15
0	17675	256	15
0	17729	257	15
0	17795	258	15
0	17865	259	15
0	17929	260	15
0	17977	261	15
0	18043	262	15
0	18095	263	15
0	18169	264	15
0	18249	265	15
0	18311	266	15
0	18369	267	15
0	18439	268	15
0	18531	269	15
0	18599	270	15
0	18671	271	15
0	18735	272	15
0	18819	273	15
0	18871	274	15
0	18933	275	15
0	19009	276	15
0	19091	277	15
0	19145	278	15
0	19221	279	15
0	19301	280	15
0	19357	281	15
0	19407	282	15
0	19489	283	15
0	19533	284	15
0	19607	285	15
0	19677	286	15
0	19725	287	15
0	19817	288	15
0	19895	289	15
0	19971	290	15
0	20049	291	15
0	20123	292	15
0	20197	293	15
0	20275	294	15
0	20349	295	15
0	20441	296	15
0	20517	297	15
0	20611	298	15
0	20699	299	15
0	20761	300	15
0	20827	301	15
0	20909	302	15
0	20967	303	15
0	21023	304	15
0	21081	305	15
0	21143	306	15
0	21213	307	15
0	21281	308	15
0	21317	309	15
0	21375	310	15
0	21437	311	15
0	21503	312	15
0	21569	313	15
0	21641	314	15
0	21709	315	15
0	21791	316	15
0	21861	317	15
0	21945	318	15
0	22001	319	15
0	22077	320	15
0	22141	321	15
0	22219	322	15
0	22293	323	15
0	22347	324	15
0	22427	325	15
0	22493	326	15
0	22575	327	15
0	22645	328	15
0	22715	329	15
0	22791	330	15
0	22865	331	15
0	22935	332	15
0	23007	333	15
0	23071	334	15
0	23129	335	15
0	23185	336	15
0	23269	337	15
0	23317	338	15
0	23395	339	15
0	23471	340	15
0	23549	341	15
0	23637	342	15
0	23733	343	15
0	23805	344	15
0	23879	345	15
0	23943	346	15
0	24011	347	15
0	24083	348	15
0	24129	349	15
0	24207	350	15
0	24285	351	15
0	24369	352	15
0	24455	353	15
0	24517	354	15
0	24603	355	15
0	24669	356	15
0	24727	357	15
0	24817	358	15
0	24899	359	15
0	24961	360	15
0	25017	361	15
0	25091	362	15
0	25157	363	15
0	25239	364	15
0	25291	365	15
0	25357	366	15
0	25421	367	15
0	25499	368	15
0	25555	369	15
0	25609	370	15
0	25689	371	15
0	25747	372	15
0	25813	373	15
0	25879	374	15
0	25955	375	15
0	26033	376	15
0	26115	377	15
0	26155	378	15
0	26223	379	15
0	26283	380	15
0	26345	381	15
0	26407	382	15
0	26459	383	15
0	26523	384	15
0	26581	385	15
0	26647	386	15
0	26719	387	15
0	26777	388	15
0	26835	389	15
0	26909	390	15
0	26967	391	15
0	27043	392	15
0	27111	393	15
0	27163	394	15
0	27233	395	15
0	27299	396	15
0	27369	397	15
0	27451	398	15
0	27511	399	15
0	27561	400	15
0	27645	401	15
0	27713	402	15
0	27765	403	15
0	27825	404	15
0	27899	405	15
0	27965	406	15
0	28041	407	15
0	28127	408	15
0	28201	409	15
0	28257	410	15
0	28345	411	15
0	28441	412	15
0	28505	413	15
0	28575	414	15
0	28629	415	15
0	28691	416	15
0	28741	417	15
0	28809	418	15
0	28891	419	15
0	28965	420	15
0	29037	421	15
0	29109	422	15
0	29195	423	15
0	29259	424	15
0	29319	425	15
0	29399	426	15
0	29475	427	15
0	29543	428	15
0	29619	429	15
0	29677	430	15
0	29757	431	15
0	29813	432	15
0	29881	433	15
0	29955	434	15
0	30019	435	15
0	30073	436	15
0	30125	437	15
0	30223	438	15
0	30283	439	15
0	30351	440	15
0	30409	441	15
0	30501	442	15
0	30579	443	15
0	30639	444	15
0	30709	445	15
0	30785	446	15
0	30841	447	15
0	30895	448	15
0	30969	449	15
0	31039	450	15
0	31101	451	15
0	31183	452	15
0	31237	453	15
0	31295	454	15
0	31377	455	15
0	31447	456	15
0	31495	457	15
0	31577	458	15
0	31643	459	15
0	31729	460	15
0	31807	461	15
0	31857	462	15
0	31935	463	15
0	32009	464	15
0	32079	465	15
0	32147	466	15
0	32219	467	15
0	32287	468	15
0	32349	469	15
0	32399	470	15
0	32461	471	15
0	32531	472	15
0	32599	473	15
0	32695	474	15
0	32761	475	15
0	32829	476	15
0	32907	477	15
0	32971	478	15
0	33029	479	15
0	33087	480	15
0	33153	481	15
0	33211	482	15
0	33283	483	15
0	33359	484	15
0	33425	485	15
0	33479	486	15
0	33551	487	15
0	33599	488	15
0	33643	489	15
0	33725	490	15
0	33817	491	15
0	33917	492	15
0	33973	493	15
0	34031	494	15
0	34077	495	15
0	34143	496	15
0	34219	497	15
0	34303	498	15
0	34353	499	15
0	34415	500	15
0	34499	501	15
0	34555	502	15
0	34627	503	15
0	34691	504	15
0	34757	505	15
0	34829	506	15
0	34901	507	15
0	34965	508	15
0	35053	509	15
0	35127	510	15
0	35205	511	15
0	35263	512	15
0	35325	513	15
0	35409	514	15
0	35509	515	15
0	35563	516	15
0	35623	517	15
0	35709	518	15
0	35795	519	15
0	35871	520	15
0	35915	521	15
0	35987	522	15
0	36039	523	15
0	36119	524	15
0	36183	525	15
0	36239	526	15
0	36335	527	15
0	36403	528	15
0	36477	529	15
0	36547	530	15
0	36609	531	15
0	36699	532	15
0	36775	533	15
0	36839	534	15
0	36909	535	15
0	36975	536	15
0	37033	537	15
0	37107	538	15
0	37183	539	15
0	37257	540	15
0	37331	541	15
0	37417	542	15
0	37501	543	15
0	37553	544	15
0	37625	545	15
0	37707	546	15
0	37811	547	15
0	37885	548	15
0	37961	549	15
0	38019	550	15
0	38081	551	15
0	38133	552	15
0	38193	553	15
0	38269	554	15
0	38337	555	15
0	38391	556	15
0	38457	557	15
0	38519	558	15
0	38613	559	15
0	38675	560	15
0	38727	561	15
0	38799	562	15
0	38861	563	15
0	38927	564	15
0	39001	565	15
0	39071	566	15
0	39133	567	15
0	39199	568	15
0	39277	569	15
0	39327	570	15
0	39413	571	15
0	39487	572	15
0	39553	573	15
0	39599	574	15
0	39659	575	15
0	39725	576	15
0	39779	577	15
0	39851	578	15
0	39919	579	15
0	39983	580	15
0	40057	581	15
0	40133	582	15
0	40213	583	15
0	40295	584	15
0	40361	585	15
0	40435	586	15
0	40535	587	15
0	40611	588	15
0	40675	589	15
0	40727	590	15
0	40795	591	15
0	40849	592	15
0	40921	593	15
0	40985	594	15
0	41053	595	15
0	41121	596	15
0	41171	597	15
0	41239	598	15
0	41307	599	15
0	41367	600	15
0	41445	601	15
0	41545	602	15
0	41627	603	15
0	41725	604	15
0	41799	605	15
0	41869	606	15
0	41921	607	15
0	41995	608	15
0	42067	609	15
0	42145	610	15
0	42227	611	15
0	42285	612	15
0	42337	613	15
0	42395	614	15
0	42491	615	15
0	42573	616	15
0	42657	617	15
0	42727	618	15
0	42789	619	15
0	42857	620	15
0	42925	621	15
0	42993	622	15
0	43063	623	15
0	43147	624	15
0	43211	625	15
0	43295	626	15
0	43379	627	15
0	43441	628	15
0	43495	629	15
0	43561	630	15
0	43669	631	15
0	43775	632	15
0	43849	633	15
0	43915	634	15
0	43981	635	15
0	44051	636	15
0	44111	637	15
0	44153	638	15
0	44199	639	15
0	44275	640	15
0	44349	641	15
0	44413	642	15
0	44485	643	15
0	44545	644	15
0	44617	645	15
0	44681	646	15
0	44745	647	15
0	44817	648	15
0	44899	649	15
0	44967	650	15
0	45031	651	15
0	45089	652	15
0	45145	653	15
0	45253	654	15
0	45339	655	15
0	45423	656	15
0	45487	657	15
0	45563	658	15
0	45641	659	15
0	45721	660	15
0	45795	661	15
0	45875	662	15
0	45949	663	15
0	46027	664	15
0	46109	665	15
0	46193	666	15
0	46281	667	15
0	46349	668	15
0	46421	669	15
0	46505	670	15
0	46569	671	15
0	46611	672	15
0	46691	673	15
0	46777	674	15
0	46841	675	15
0	46923	676	15
0	47009	677	15
0	47053	678	15
0	47123	679	15
0	47189	680	15
0	47261	681	15
0	47361	682	15
0	47441	683	15
0	47507	684	15
0	47563	685	15
0	47621	686	15
0	47677	687	15
0	47735	688	15
0	47817	689	15
0	47911	690	15
0	47975	691	15
0	48067	692	15
0	48137	693	15
0	48213	694	15
0	48283	695	15
0	48347	696	15
0	48407	697	15
0	48477	698	15
0	48547	699	15
0	48631	700	15
0	48719	701	15
0	48805	702	15
0	48873	703	15
0	48929	704	15
0	48975	705	15
0	49053	706	15
0	49125	707	15
0	49215	708	15
0	49293	709	15
0	49355	710	15
0	49433	711	15
0	49491	712	15
0	49573	713	15
0	49643	714	15
0	49701	715	15
0	49781	716	15
0	49849	717	15
0	49907	718	15
0	49965	719	15
0	50041	720	15
0	50117	721	15
0	50213	722	15
0	50273	723	15
0	50353	724	15
0	50427	725	15
0	50491	726	15
0	50559	727	15
0	50633	728	15
0	50699	729	15
0	50767	730	15
0	50827	731	15
0	50879	732	15
0	50941	733	15
0	51011	734	15
0	51095	735	15
0	51183	736	15
0	51265	737	15
0	51341	738	15
0	51417	739	15
0	51501	740	15
0	51557	741	15
0	51639	742	15
0	51741	743	15
0	51829	744	15
0	51895	745	15
0	51947	746	15
0	52033	747	15
0	52089	748	15
0	52149	749	15
0	52233	750	15
0	52297	751	15
0	52371	752	15
0	52433	753	15
0	52511	754	15
0	52585	755	15
0	52665	756	15
0	52733	757	15
0	52809	758	15
0	52873	759	15
0	52923	760	15
0	52995	761	15
0	53087	762	15
0	53157	763	15
0	53233	764	15
0	53299	765	15
0	53385	766	15
0	53465	767	15
0	53529	768	15
0	53601	769	15
0	53669	770	15
0	53745	771	15
0	53811	772	15
0	53893	773	15
0	53969	774	15
0	54027	775	15
0	54083	776	15
0	54157	777	15
0	54235	778	15
0	54309	779	15
0	54375	780	15
0	54459	781	15
0	54527	782	15
0	54597	783	15
0	54667	784	15
0	54757	785	15
0	54843	786	15
0	54903	787	15
0	54973	788	15
0	55033	789	15
0	55113	790	15
0	55185	791	15
0	55241	792	15
0	55325	793	15
0	55383	794	15
0	55477	795	15
0	55559	796	15
0	55641	797	15
0	55723	798	15
0	55801	799	15
0	55901	800	15
0	55971	801	15
0	56043	802	15
0	56121	803	15
0	56187	804	15
0	56281	805	15
0	56363	806	15
0	56445	807	15
0	56529	808	15
0	56599	809	15
0	56679	810	15
0	56733	811	15
0	56791	812	15
0	56861	813	15
0	56933	814	15
0	57005	815	15
0	57059	816	15
0	57111	817	15
0	57187	818	15
0	57233	819	15
0	57321	820	15
0	57373	821	15
0	57449	822	15
0	57493	823	15
0	57549	824	15
0	57621	825	15
0	57681	826	15
0	57767	827	15
0	57835	828	15
0	57905	829	15
0	57987	830	15
0	58065	831	15
0	58119	832	15
0	58183	833	15
0	58241	834	15
0	58301	835	15
0	58385	836	15
0	58471	837	15
0	58531	838	15
0	58617	839	15
0	58683	840	15
0	58747	841	15
0	58821	842	15
0	58907	843	15
0	58983	844	15
0	59049	845	15
0	59117	846	15
0	59185	847	15
0	59247	848	15
0	59297	849	15
0	59365	850	15
0	59411	851	15
0	59475	852	15
0	59533	853	15
0	59577	854	15
0	59641	855	15
0	59725	856	15
0	59779	857	15
0	59865	858	15
0	59941	859	15
0	59993	860	15
0	60061	861	15
0	60131	862	15
0	60189	863	15
0	60251	864	15
0	60301	865	15
0	60387	866	15
0	60457	867	15
0	60527	868	15
0	60601	869	15
0	60675	870	15
0	60739	871	15
0	60803	872	15
0	60889	873	15
0	60953	874	15
0	61035	875	15
0	61109	876	15
0	61167	877	15
0	61229	878	15
0	61285	879	15
0	61361	880	15
0	61441	881	15
0	61521	882	15
0	61579	883	15
0	61643	884	15
0	61705	885	15
0	61747	886	15
0	61817	887	15
0	61895	888	15
0	61969	889	15
0	62055	890	15
0	62133	891	15
0	62183	892	15
0	62235	893	15
0	62293	894	15
0	62343	895	15
0	62407	896	15
0	62461	897	15
0	62543	898	15
0	62619	899	15
0	62691	900	15
0	62779	901	15
0	62839	902	15
0	62893	903	15
0	62975	904	15
0	63041	905	15
0	63099	906	15
0	63189	907	15
0	63269	908	15
0	63331	909	15
0	63405	910	15
0	63463	911	15
0	63535	912	15
0	63585	913	15
0	63635	914	15
0	63707	915	15
0	63775	916	15
0	63857	917	15
0	63927	918	15
0	63993	919	15
0	64069	920	15
0	64127	921	15
0	64187	922	15
0	64261	923	15
0	64321	924	15
0	64407	925	15
0	64503	926	15
0	64567	927	15
0	64639	928	15
0	64701	929	15
0	64775	930	15
0	64831	931	15
0	64913	932	15
0	64969	933	15
0	65035	934	15
0	65121	935	15
0	65185	936	15
0	65241	937	15
0	65297	938	15
0	65385	939	15
0	65451	940	15
0	65533	941	15
0	65597	942	15
0	65667	943	15
0	65731	944	15
0	65789	945	15
0	65859	946	15
0	65921	947	15
0	66003	948	15
0	66057	949	15
0	66111	950	15
0	66177	951	15
0	66235	952	15
0	66283	953	15
0	66343	954	15
0	66403	955	15
0	66465	956	15
0	66551	957	15
0	66623	958	15
0	66705	959	15
0	66807	960	15
0	66893	961	15
0	66951	962	15
0	67029	963	15
0	67101	964	15
0	67165	965	15
0	67227	966	15
0	67289	967	15
0	67329	968	15
0	67407	969	15
0	67461	970	15
0	67523	971	15
0	67609	972	15
0	67669	973	15
0	67725	974	15
0	67791	975	15
0	67863	976	15
0	67929	977	15
0	67983	978	15
0	68037	979	15
0	68121	980	15
0	68219	981	15
0	68301	982	15
0	68373	983	15
0	68451	984	15
0	68523	985	15
0	68597	986	15
0	68667	987	15
0	68739	988	15
0	68817	989	15
0	68883	990	15
0	68945	991	15
0	69047	992	15
0	69107	993	15
0	69163	994	15
0	69231	995	15
0	69323	996	15
0	69387	997	15
0	69457	998	15
0	69539	999	15
0	69617	1000	15
0	69693	1001	15
0	69745	1002	15
0	69837	1003	15
0	69913	1004	15
0	69973	1005	15
0	70027	1006	15
0	70113	1007	15
0	70213	1008	15
0	70297	1009	15
0	70341	1010	15
0	70391	1011	15
0	70463	1012	15
0	70517	1013	15
0	70581	1014	15
0	70643	1015	15
0	70711	1016	15
0	70779	1017	15
0	70863	1018	15
0	70937	1019	15
0	70987	1020	15
0	71045	1021	15
0	71117	1022	15
0	71197	1023	15
0	71271	1024	15
0	71357	1025	15
0	71439	1026	15
0	71519	1027	15
0	71589	1028	15
0	71669	1029	15
0	71739	1030	15
0	71807	1031	15
0	71891	1032	15
0	71953	1033	15
0	72027	1034	15
0	72095	1035	15
0	72159	1036	15
0	72221	1037	15
0	72291	1038	15
0	72363	1039	15
0	72441	1040	15
0	72503	1041	15
0	72589	1042	15
0	72687	1043	15
0	72765	1044	15
0	72837	1045	15
0	72907	1046	15
0	72975	1047	15
0	73049	1048	15
0	73117	1049	15
0	73197	1050	15
0	73279	1051	15
0	73349	1052	15
0	73405	1053	15
0	73467	1054	15
0	73533	1055	15
0	73625	1056	15
0	73681	1057	15
0	73749	1058	15
0	73819	1059	15
0	73899	1060	15
0	73969	1061	15
0	74049	1062	15
0	74143	1063	15
0	74211	1064	15
0	74271	1065	15
0	74355	1066	15
0	74433	1067	15
0	74531	1068	15
0	74617	1069	15
0	74689	1070	15
0	74757	1071	15
0	74837	1072	15
0	74913	1073	15
0	74999	1074	15
0	75063	1075	15
0	75133	1076	15
0	75195	1077	15
0	75287	1078	15
0	75373	1079	15
0	75443	1080	15
0	75489	1081	15
0	75555	1082	15
0	75617	1083	15
0	75673	1084	15
0	75725	1085	15
0	75811	1086	15
0	75899	1087	15
0	75967	1088	15
0	76053	1089	15
0	76151	1090	15
0	76229	1091	15
0	76301	1092	15
0	76377	1093	15
0	76451	1094	15
0	76555	1095	15
0	76613	1096	15
0	76679	1097	15
0	76767	1098	15
0	76849	1099	15
0	76925	1100	15
0	77005	1101	15
0	77065	1102	15
0	77155	1103	15
0	77247	1104	15
0	77325	1105	15
0	77385	1106	15
0	77443	1107	15
0	77521	1108	15
0	77609	1109	15
0	77689	1110	15
0	77765	1111	15
0	77843	1112	15
0	77919	1113	15
0	77995	1114	15
0	78067	1115	15
0	78141	1116	15
0	78201	1117	15
0	78285	1118	15
0	78373	1119	15
0	78465	1120	15
0	78527	1121	15
0	78615	1122	15
0	78703	1123	15
0	78767	1124	15
0	78839	1125	15
0	78903	1126	15
0	78965	1127	15
0	79007	1128	15
0	79069	1129	15
0	79125	1130	15
0	79177	1131	15
0	79273	1132	15
0	79331	1133	15
0	79409	1134	15
0	79493	1135	15
0	79547	1136	15
0	79635	1137	15
0	79699	1138	15
0	79771	1139	15
0	79827	1140	15
0	79871	1141	15
0	79947	1142	15
0	80025	1143	15
0	80103	1144	15
0	80195	1145	15
0	80257	1146	15
0	80315	1147	15
0	80371	1148	15
0	80421	1149	15
0	80465	1150	15
0	80509	1151	15
0	80575	1152	15
0	80647	1153	15
0	80719	1154	15
0	80803	1155	15
0	80905	1156	15
0	80995	1157	15
0	81063	1158	15
0	81155	1159	15
0	81231	1160	15
0	81319	1161	15
0	81397	1162	15
0	81461	1163	15
0	81537	1164	15
0	81587	1165	15
0	81655	1166	15
0	81725	1167	15
0	81783	1168	15
0	81855	1169	15
0	81927	1170	15
0	81963	1171	15
0	82015	1172	15
0	82085	1173	15
0	82157	1174	15
0	82227	1175	15
0	82295	1176	15
0	82381	1177	15
0	82459	1178	15
0	82537	1179	15
0	82607	1180	15
0	82703	1181	15
0	82785	1182	15
0	82889	1183	15
0	82953	1184	15
0	83021	1185	15
0	83095	1186	15
0	83177	1187	15
0	83229	1188	15
0	83315	1189	15
0	83377	1190	15
0	83443	1191	15
0	83527	1192	15
0	83577	1193	15
0	83645	1194	15
0	83723	1195	15
0	83791	1196	15
0	83845	1197	15
0	83909	1198	15
0	83953	1199	15
0	84017	1200	15
0	84069	1201	15
0	84133	1202	15
0	84207	1203	15
0	84295	1204	15
0	84383	1205	15
0	84435	1206	15
0	84515	1207	15
0	84579	1208	15
0	84637	1209	15
0	84699	1210	15
0	84779	1211	15
0	84839	1212	15
0	84905	1213	15
0	84985	1214	15
0	85067	1215	15
0	85127	1216	15
0	85191	1217	15
0	85257	1218	15
0	85309	1219	15
0	85391	1220	15
0	85453	1221	15
0	85525	1222	15
0	85601	1223	15
0	85661	1224	15
0	85733	1225	15
0	85823	1226	15
0	85873	1227	15
0	85951	1228	15
0	86021	1229	15
0	86085	1230	15
0	86149	1231	15
0	86225	1232	15
0	86293	1233	15
0	86357	1234	15
0	86429	1235	15
0	86505	1236	15
0	86575	1237	15
0	86655	1238	15
0	86719	1239	15
0	86775	1240	15
0	86843	1241	15
0	86907	1242	15
0	86973	1243	15
0	87067	1244	15
0	87133	1245	15
0	87207	1246	15
0	87289	1247	15
0	87355	1248	15
0	87419	1249	15
0	87481	1250	15
0	87559	1251	15
0	87631	1252	15
0	87681	1253	15
0	87755	1254	15
0	87823	1255	15
0	87877	1256	15
0	87935	1257	15
0	88003	1258	15
0	88069	1259	15
0	88155	1260	15
0	88233	1261	15
0	88317	1262	15
0	88369	1263	15
0	88443	1264	15
0	88505	1265	15
0	88587	1266	15
0	88659	1267	15
0	88729	1268	15
0	88805	1269	15
0	88875	1270	15
0	88941	1271	15
0	89003	1272	15
0	89067	1273	15
0	89127	1274	15
0	89205	1275	15
0	89295	1276	15
0	89379	1277	15
0	89457	1278	15
0	89539	1279	15
0	89603	1280	15
0	89667	1281	15
0	89725	1282	15
0	89789	1283	15
0	89857	1284	15
0	89931	1285	15
0	90027	1286	15
0	90081	1287	15
0	90151	1288	15
0	90209	1289	15
0	90289	1290	15
0	90381	1291	15
0	90447	1292	15
0	90501	1293	15
0	90565	1294	15
0	90619	1295	15
0	90699	1296	15
0	90781	1297	15
0	90853	1298	15
0	90925	1299	15
0	90985	1300	15
0	91067	1301	15
0	91151	1302	15
0	91217	1303	15
0	91275	1304	15
0	91329	1305	15
0	91407	1306	15
0	91461	1307	15
0	91535	1308	15
0	91613	1309	15
0	91687	1310	15
0	91765	1311	15
0	91815	1312	15
0	91895	1313	15
0	91963	1314	15
0	92041	1315	15
0	92099	1316	15
0	92181	1317	15
0	92235	1318	15
0	92313	1319	15
0	92367	1320	15
0	92417	1321	15
0	92487	1322	15
0	92557	1323	15
0	92623	1324	15
0	92713	1325	15
0	92787	1326	15
0	92861	1327	15
0	92939	1328	15
0	92997	1329	15
0	93075	1330	15
0	93135	1331	15
0	93227	1332	15
0	93305	1333	15
0	93359	1334	15
0	93455	1335	15
0	93545	1336	15
0	93627	1337	15
0	93685	1338	15
0	93759	1339	15
0	93835	1340	15
0	93889	1341	15
0	93957	1342	15
0	94001	1343	15
0	94095	1344	15
0	94167	1345	15
0	94239	1346	15
0	94305	1347	15
0	94367	1348	15
0	94439	1349	15
0	94485	1350	15
0	94551	1351	15
0	94627	1352	15
0	94703	1353	15
0	94769	1354	15
0	94835	1355	15
0	94907	1356	15
0	94989	1357	15
0	95047	1358	15
0	95133	1359	15
0	95221	1360	15
0	95277	1361	15
0	95341	1362	15
0	95439	1363	15
0	95485	1364	15
0	95545	1365	15
0	95611	1366	15
0	95701	1367	15
0	95775	1368	15
0	95841	1369	15
0	95915	1370	15
0	95985	1371	15
0	96053	1372	15
0	96133	1373	15
0	96213	1374	15
0	96285	1375	15
0	96373	1376	15
0	96443	1377	15
0	96521	1378	15
0	96573	1379	15
0	96633	1380	15
0	96701	1381	15
0	96751	1382	15
0	96813	1383	15
0	96901	1384	15
0	96985	1385	15
0	97073	1386	15
0	97135	1387	15
0	97207	1388	15
0	97289	1389	15
0	97347	1390	15
0	97433	1391	15
0	97513	1392	15
0	97589	1393	15
0	97647	1394	15
0	97727	1395	15
0	97795	1396	15
0	97871	1397	15
0	97937	1398	15
0	97997	1399	15
0	98065	1400	15
0	98139	1401	15
0	98225	1402	15
0	98309	1403	15
0	98381	1404	15
0	98445	1405	15
0	98517	1406	15
0	98579	1407	15
0	98659	1408	15
0	98701	1409	15
0	98759	1410	15
0	98839	1411	15
0	98919	1412	15
0	98989	1413	15
0	99087	1414	15
0	99159	1415	15
0	99239	1416	15
0	99329	1417	15
0	99443	1418	15
0	99523	1419	15
1	15	0	34
1	79	1	34
1	151	2	34
1	225	3	34
1	271	4	34
1	339	5	34
1	423	6	34
1	503	7	34
1	573	8	34
1	653	9	34
1	721	10	34
1	791	11	34
1	853	12	34
1	913	13	34
1	987	14	34
1	1057	15	34
1	1117	16	34
1	1213	17	34
1	1279	18	34
1	1337	19	34
1	1399	20	34
1	1461	21	34
1	1539	22	34
1	1625	23	34
1	1695	24	34
1	1761	25	34
1	1819	26	34
1	1885	27	34
1	1957	28	34
1	2015	29	34
1	2091	30	34
1	2171	31	34
1	2219	32	34
1	2297	33	34
1	2375	34	34
1	2433	35	34
1	2505	36	34
1	2565	37	34
1	2643	38	34
1	2705	39	34
1	2775	40	34
1	2849	41	34
1	2949	42	34
1	3015	43	34
1	3103	44	34
1	3165	45	34
1	3225	46	34
1	3265	47	34
1	3331	48	34
1	3385	49	34
1	3465	50	34
1	3529	51	34
1	3573	52	34
1	3669	53	34
1	3741	54	34
1	3829	55	34
1	3911	56	34
1	4005	57	34
1	4073	58	34
1	4153	59	34
1	4247	60	34
1	4305	61	34
1	4369	62	34
1	4449	63	34
1	4499	64	34
1	4567	65	34
1	4617	66	34
1	4705	67	34
1	4787	68	34
1	4887	69	34
1	4947	70	34
1	5017	71	34
1	5077	72	34
1	5145	73	34
1	5215	74	34
1	5259	75	34
1	5329	76	34
1	5381	77	34
1	5469	78	34
1	5537	79	34
1	5603	80	34
1	5671	81	34
1	5739	82	34
1	5795	83	34
1	5869	84	34
1	5941	85	34
1	5997	86	34
1	6065	87	34
1	6143	88	34
1	6245	89	34
1	6313	90	34
1	6373	91	34
1	6423	92	34
1	6501	93	34
1	6559	94	34
1	6623	95	34
1	6679	96	34
1	6757	97	34
1	6827	98	34
1	6913	99	34
1	6979	100	34
1	7061	101	34
1	7109	102	34
1	7185	103	34
1	7255	104	34
1	7311	105	34
1	7355	106	34
1	7425	107	34
1	7507	108	34
1	7551	109	34
1	7613	110	34
1	7701	111	34
1	7773	112	34
1	7841	113	34
1	7919	114	34
1	8001	115	34
1	8087	116	34
1	8137	117	34
1	8199	118	34
1	8293	119	34
1	8377	120	34
1	8463	121	34
1	8521	122	34
1	8597	123	34
1	8687	124	34
1	8747	125	34
1	8805	126	34
1	8883	127	34
1	8945	128	34
1	8997	129	34
1	9053	130	34
1	9127	131	34
1	9195	132	34
1	9281	133	34
1	9339	134	34
1	9411	135	34
1	9475	136	34
1	9557	137	34
1	9657	138	34
1	9733	139	34
1	9821	140	34
1	9889	141	34
1	9959	142	34
1	10013	143	34
1	10093	144	34
1	10161	145	34
1	10235	146	34
1	10309	147	34
1	10371	148	34
1	10431	149	34
1	10501	150	34
1	10569	151	34
1	10643	152	34
1	10707	153	34
1	10773	154	34
1	10835	155	34
1	10911	156	34
1	10985	157	34
1	11051	158	34
1	11105	159	34
1	11181	160	34
1	11237	161	34
1	11329	162	34
1	11379	163	34
1	11449	164	34
1	11501	165	34
1	11559	166	34
1	11645	167	34
1	11721	168	34
1	11797	169	34
1	11879	170	34
1	11949	171	34
1	11999	172	34
1	12077	173	34
1	12143	174	34
1	12211	175	34
1	12311	176	34
1	12373	177	34
1	12467	178	34
1	12543	179	34
1	12605	180	34
1	12669	181	34
1	12717	182	34
1	12791	183	34
1	12851	184	34
1	12905	185	34
1	12965	186	34
1	13037	187	34
1	13113	188	34
1	13173	189	34
1	13229	190	34
1	13285	191	34
1	13361	192	34
1	13443	193	34
1	13531	194	34
1	13583	195	34
1	13659	196	34
1	13737	197	34
1	13793	198	34
1	13849	199	34
1	13909	200	34
1	13961	201	34
1	14035	202	34
1	14111	203	34
1	14185	204	34
1	14267	205	34
1	14325	206	34
1	14369	207	34
1	14437	208	34
1	14541	209	34
1	14625	210	34
1	14677	211	34
1	14731	212	34
1	14795	213	34
1	14843	214	34
1	14873	215	34
1	14943	216	34
1	15011	217	34
1	15109	218	34
1	15181	219	34
1	15247	220	34
1	15297	221	34
1	15353	222	34
1	15415	223	34
1	15485	224	34
1	15561	225	34
1	15607	226	34
1	15679	227	34
1	15767	228	34
1	15831	229	34
1	15917	230	34
1	15997	231	34
1	16047	232	34
1	16109	233	34
1	16175	234	34
1	16253	235	34
1	16341	236	34
1	16397	237	34
1	16457	238	34
1	16523	239	34
1	16593	240	34
1	16687	241	34
1	16741	242	34
1	16807	243	34
1	16863	244	34
1	16913	245	34
1	16989	246	34
1	17057	247	34
1	17129	248	34
1	17189	249	34
1	17251	250	34
1	17319	251	34
1	17417	252	34
1	17485	253	34
1	17545	254	34
1	17599	255	34
1	17675	256	34
1	17729	257	34
1	17795	258	34
1	17865	259	34
1	17929	260	34
1	17977	261	34
1	18043	262	34
1	18095	263	34
1	18169	264	34
1	18249	265	34
1	18311	266	34
1	18369	267	34
1	18439	268	34
1	18531	269	34
1	18599	270	34
1	18671	271	34
1	18735	272	34
1	18819	273	34
1	18871	274	34
1	18933	275	34
1	19009	276	34
1	19091	277	34
1	19145	278	34
1	19221	279	34
1	19301	280	34
1	19357	281	34
1	19407	282	34
1	19489	283	34
1	19533	284	34
1	19607	285	34
1	19677	286	34
1	19725	287	34
1	19817	288	34
1	19895	289	34
1	19971	290	34
1	20049	291	34
1	20123	292	34
1	20197	293	34
1	20275	294	34
1	20349	295	34
1	20441	296	34
1	20517	297	34
1	20611	298	34
1	20699	299	34
1	20761	300	34
1	20827	301	34
1	20909	302	34
1	20967	303	34
1	21023	304	34
1	21081	305	34
1	21143	306	34
1	21213	307	34
1	21281	308	34
1	21317	309	34
1	21375	310	34
1	21437	311	34
1	21503	312	34
1	21569	313	34
1	21641	314	34
1	21709	315	34
1	21791	316	34
1	21861	317	34
1	21945	318	34
1	22001	319	34
1	22077	320	34
1	22141	321	34
1	22219	322	34
1	22293	323	34
1	22347	324	34
1	22427	325	34
1	22493	326	34
1	22575	327	34
1	22645	328	34
1	22715	329	34
1	22791	330	34
1	22865	331	34
1	22935	332	34
1	23007	333	34
1	23071	334	34
1	23129	335	34
1	23185	336	34
1	23269	337	34
1	23317	338	34
1	23395	339	34
1	23471	340	34
1	23549	341	34
1	23637	342	34
1	23733	343	34
1	23805	344	34
1	23879	345	34
1	23943	346	34
1	24011	347	34
1	24083	348	34
1	24129	349	34
1	24207	350	34
1	24285	351	34
1	24369	352	34
1	24455	353	34
1	24517	354	34
1	24603	355	34
1	24669	356	34
1	24727	357	34
1	24817	358	34
1	24899	359	34
1	24961	360	34
1	25017	361	34
1	25091	362	34
1	25157	363	34
1	25239	364	34
1	25291	365	34
1	25357	366	34
1	25421	367	34
1	25499	368	34
1	25555	369	34
1	25609	370	34
1	25689	371	34
1	25747	372	34
1	25813	373	34
1	25879	374	34
1	25955	375	34
1	26033	376	34
1	26115	377	34
1	26155	378	34
1	26223	379	34
1	26283	380	34
1	26345	381	34
1	26407	382	34
1	26459	383	34
1	26523	384	34
1	26581	385	34
1	26647	386	34
1	26719	387	34
1	26777	388	34
1	26835	389	34
1	26909	390	34
1	26967	391	34
1	27043	392	34
1	27111	393	34
1	27163	394	34
1	27233	395	34
1	27299	396	34
1	27369	397	34
1	27451	398	34
1	27511	399	34
1	27561	400	34
1	27645	401	34
1	27713	402	34
1	27765	403	34
1	27825	404	34
1	27899	405	34
1	27965	406	34
1	28041	407	34
1	28127	408	34
1	28201	409	34
1	28257	410	34
1	28345	411	34
1	28441	412	34
1	28505	413	34
1	28575	414	34
1	28629	415	34
1	28691	416	34
1	28741	417	34
1	28809	418	34
1	28891	419	34
1	28965	420	34
1	29037	421	34
1	29109	422	34
1	29195	423	34
1	29259	424	34
1	29319	425	34
1	29399	426	34
1	29475	427	34
1	29543	428	34
1	29619	429	34
1	29677	430	34
1	29757	431	34
1	29813	432	34
1	29881	433	34
1	29955	434	34
1	30019	435	34
1	30073	436	34
1	30125	437	34
1	30223	438	34
1	30283	439	34
1	30351	440	34
1	30409	441	34
1	30501	442	34
1	30579	443	34
1	30639	444	34
1	30709	445	34
1	30785	446	34
1	30841	447	34
1	30895	448	34
1	30969	449	34
1	31039	450	34
1	31101	451	34
1	31183	452	34
1	31237	453	34
1	31295	454	34
1	31377	455	34
1	31447	456	34
1	31495	457	34
1	31577	458	34
1	31643	459	34
1	31729	460	34
1	31807	461	34
1	31857	462	34
1	31935	463	34
1	32009	464	34
1	32079	465	34
1	32147	466	34
1	32219	467	34
1	32287	468	34
1	32349	469	34
1	32399	470	34
1	32461	471	34
1	32531	472	34
1	32599	473	34
1	32695	474	34
1	32761	475	34
1	32829	476	34
1	32907	477	34
1	32971	478	34
1	33029	479	34
1	33087	480	34
1	33153	481	34
1	33211	482	34
1	33283	483	34
1	33359	484	34
1	33425	485	34
1	33479	486	34
1	33551	487	34
1	33599	488	34
1	33643	489	34
1	33725	490	34
1	33817	491	34
1	33917	492	34
1	33973	493	34
1	34031	494	34
1	34077	495	34
1	34143	496	34
1	34219	497	34
1	34303	498	34
1	34353	499	34
1	34415	500	34
1	34499	501	34
1	34555	502	34
1	34627	503	34
1	34691	504	34
1	34757	505	34
1	34829	506	34
1	34901	507	34
1	34965	508	34
1	35053	509	34
1	35127	510	34
1	35205	511	34
1	35263	512	34
1	35325	513	34
1	35409	514	34
1	35509	515	34
1	35563	516	34
1	35623	517	34
1	35709	518	34
1	35795	519	34
1	35871	520	34
1	35915	521	34
1	35987	522	34
1	36039	523	34
1	36119	524	34
1	36183	525	34
1	36239	526	34
1	36335	527	34
1	36403	528	34
1	36477	529	34
1	36547	530	34
1	36609	531	34
1	36699	532	34
1	36775	533	34
1	36839	534	34
1	36909	535	34
1	36975	536	34
1	37033	537	34
1	37107	538	34
1	37183	539	34
1	37257	540	34
1	37331	541	34
1	37417	542	34
1	37501	543	34
1	37553	544	34
1	37625	545	34
1	37707	546	34
1	37811	547	34
1	37885	548	34
1	37961	549	34
1	38019	550	34
1	38081	551	34
1	38133	552	34
1	38193	553	34
1	38269	554	34
1	38337	555	34
1	38391	556	34
1	38457	557	34
1	38519	558	34
1	38613	559	34
1	38675	560	34
1	38727	561	34
1	38799	562	34
1	38861	563	34
1	38927	564	34
1	39001	565	34
1	39071	566	34
1	39133	567	34
1	39199	568	34
1	39277	569	34
1	39327	570	34
1	39413	571	34
1	39487	572	34
1	39553	573	34
1	39599	574	34
1	39659	575	34
1	39725	576	34
1	39779	577	34
1	39851	578	34
1	39919	579	34
1	39983	580	34
1	40057	581	34
1	40133	582	34
1	40213	583	34
1	40295	584	34
1	40361	585	34
1	40435	586	34
1	40535	587	34
1	40611	588	34
1	40675	589	34
1	40727	590	34
1	40795	591	34
1	40849	592	34
1	40921	593	34
1	40985	594	34
1	41053	595	34
1	41121	596	34
1	41171	597	34
1	41239	598	34
1	41307	599	34
1	41367	600	34
1	41445	601	34
1	41545	602	34
1	41627	603	34
1	41725	604	34
1	41799	605	34
1	41869	606	34
1	41921	607	34
1	41995	608	34
1	42067	609	34
1	42145	610	34
1	42227	611	34
1	42285	612	34
1	42337	613	34
1	42395	614	34
1	42491	615	34
1	42573	616	34
1	42657	617	34
1	42727	618	34
1	42789	619	34
1	42857	620	34
1	42925	621	34
1	42993	622	34
1	43063	623	34
1	43147	624	34
1	43211	625	34
1	43295	626	34
1	43379	627	34
1	43441	628	34
1	43495	629	34
1	43561	630	34
1	43669	631	34
1	43775	632	34
1	43849	633	34
1	43915	634	34
1	43981	635	34
1	44051	636	34
1	44111	637	34
1	44153	638	34
1	44199	639	34
1	44275	640	34
1	44349	641	34
1	44413	642	34
1	44485	643	34
1	44545	644	34
1	44617	645	34
1	44681	646	34
1	44745	647	34
1	44817	648	34
1	44899	649	34
1	44967	650	34
1	45031	651	34
1	45089	652	34
1	45145	653	34
1	45253	654	34
1	45339	655	34
1	45423	656	34
1	45487	657	34
1	45563	658	34
1	45641	659	34
1	45721	660	34
1	45795	661	34
1	45875	662	34
1	45949	663	34
1	46027	664	34
1	46109	665	34
1	46193	666	34
1	46281	667	34
1	46349	668	34
1	46421	669	34
1	46505	670	34
1	46569	671	34
1	46611	672	34
1	46691	673	34
1	46777	674	34
1	46841	675	34
1	46923	676	34
1	47009	677	34
1	47053	678	34
1	47123	679	34
1	47189	680	34
1	47261	681	34
1	47361	682	34
1	47441	683	34
1	47507	684	34
1	47563	685	34
1	47621	686	34
1	47677	687	34
1	47735	688	34
1	47817	689	34
1	47911	690	34
1	47975	691	34
1	48067	692	34
1	48137	693	34
1	48213	694	34
1	48283	695	34
1	48347	696	34
1	48407	697	34
1	48477	698	34
1	48547	699	34
1	48631	700	34
1	48719	701	34
1	48805	702	34
1	48873	703	34
1	48929	704	34
1	48975	705	34
1	49053	706	34
1	49125	707	34
1	49215	708	34
1	49293	709	34
1	49355	710	34
1	49433	711	34
1	49491	712	34
1	49573	713	34
1	49643	714	34
1	49701	715	34
1	49781	716	34
1	49849	717	34
1	49907	718	34
1	49965	719	34
1	50041	720	34
1	50117	721	34
1	50213	722	34
1	50273	723	34
1	50353	724	34
1	50427	725	34
1	50491	726	34
1	50559	727	34
1	50633	728	34
1	50699	729	34
1	50767	730	34
1	50827	731	34
1	50879	732	34
1	50941	733	34
1	51011	734	34
1	51095	735	34
1	51183	736	34
1	51265	737	34
1	51341	738	34
1	51417	739	34
1	51501	740	34
1	51557	741	34
1	51639	742	34
1	51741	743	34
1	51829	744	34
1	51895	745	34
1	51947	746	34
1	52033	747	34
1	52089	748	34
1	52149	749	34
1	52233	750	34
1	52297	751	34
1	52371	752	34
1	52433	753	34
1	52511	754	34
1	52585	755	34
1	52665	756	34
1	52733	757	34
1	52809	758	34
1	52873	759	34
1	52923	760	34
1	52995	761	34
1	53087	762	34
1	53157	763	34
1	53233	764	34
1	53299	765	34
1	53385	766	34
1	53465	767	34
1	53529	768	34
1	53601	769	34
1	53669	770	34
1	53745	771	34
1	53811	772	34
1	53893	773	34
1	53969	774	34
1	54027	775	34
1	54083	776	34
1	54157	777	34
1	54235	778	34
1	54309	779	34
1	54375	780	34
1	54459	781	34
1	54527	782	34
1	54597	783	34
1	54667	784	34
1	54757	785	34
1	54843	786	34
1	54903	787	34
1	54973	788	34
1	55033	789	34
1	55113	790	34
1	55185	791	34
1	55241	792	34
1	55325	793	34
1	55383	794	34
1	55477	795	34
1	55559	796	34
1	55641	797	34
1	55723	798	34
1	55801	799	34
1	55901	800	34
1	55971	801	34
1	56043	802	34
1	56121	803	34
1	56187	804	34
1	56281	805	34
1	56363	806	34
1	56445	807	34
1	56529	808	34
1	56599	809	34
1	56679	810	34
1	56733	811	34
1	56791	812	34
1	56861	813	34
1	56933	814	34
1	57005	815	34
1	57059	816	34
1	57111	817	34
1	57187	818	34
1	57233	819	34
1	57321	820	34
1	57373	821	34
1	57449	822	34
1	57493	823	34
1	57549	824	34
1	57621	825	34
1	57681	826	34
1	57767	827	34
1	57835	828	34
1	57905	829	34
1	57987	830	34
1	58065	831	34
1	58119	832	34
1	58183	833	34
1	58241	834	34
1	58301	835	34
1	58385	836	34
1	58471	837	34
1	58531	838	34
1	58617	839	34
1	58683	840	34
1	58747	841	34
1	58821	842	34
1	58907	843	34
1	58983	844	34
1	59049	845	34
1	59117	846	34
1	59185	847	34
1	59247	848	34
1	59297	849	34
1	59365	850	34
1	59411	851	34
1	59475	852	34
1	59533	853	34
1	59577	854	34
1	59641	855	34
1	59725	856	34
1	59779	857	34
1	59865	858	34
1	59941	859	34
1	59993	860	34
1	60061	861	34
1	60131	862	34
1	60189	863	34
1	60251	864	34
1	60301	865	34
1	60387	866	34
1	60457	867	34
1	60527	868	34
1	60601	869	34
1	60675	870	34
1	60739	871	34
1	60803	872	34
1	60889	873	34
1	60953	874	34
1	61035	875	34
1	61109	876	34
1	61167	877	34
1	61229	878	34
1	61285	879	34
1	61361	880	34
1	61441	881	34
1	61521	882	34
1	61579	883	34
1	61643	884	34
1	61705	885	34
1	61747	886	34
1	61817	887	34
1	61895	888	34
1	61969	889	34
1	62055	890	34
1	62133	891	34
1	62183	892	34
1	62235	893	34
1	62293	894	34
1	62343	895	34
1	62407	896	34
1	62461	897	34
1	62543	898	34
1	62619	899	34
1	62691	900	34
1	62779	901	34
1	62839	902	34
1	62893	903	34
1	62975	904	34
1	63041	905	34
1	63099	906	34
1	63189	907	34
1	63269	908	34
1	63331	909	34
1	63405	910	34
1	63463	911	34
1	63535	912	34
1	63585	913	34
1	63635	914	34
1	63707	915	34
1	63775	916	34
1	63857	917	34
1	63927	918	34
1	63993	919	34
1	64069	920	34
1	64127	921	34
1	64187	922	34
1	64261	923	34
1	64321	924	34
1	64407	925	34
1	64503	926	34
1	64567	927	34
1	64639	928	34
1	64701	929	34
1	64775	930	34
1	64831	931	34
1	64913	932	34
1	64969	933	34
1	65035	934	34
1	65121	935	34
1	65185	936	34
1	65241	937	34
1	65297	938	34
1	65385	939	34
1	65451	940	34
1	65533	941	34
1	65597	942	34
1	65667	943	34
1	65731	944	34
1	65789	945	34
1	65859	946	34
1	65921	947	34
1	66003	948	34
1	66057	949	34
1	66111	950	34
1	66177	951	34
1	66235	952	34
1	66283	953	34
1	66343	954	34
1	66403	955	34
1	66465	956	34
1	66551	957	34
1	66623	958	34
1	66705	959	34
1	66807	960	34
1	66893	961	34
1	66951	962	34
1	67029	963	34
1	67101	964	34
1	67165	965	34
1	67227	966	34
1	67289	967	34
1	67329	968	34
1	67407	969	34
1	67461	970	34
1	67523	971	34
1	67609	972	34
1	67669	973	34
1	67725	974	34
1	67791	975	34
1	67863	976	34
1	67929	977	34
1	67983	978	34
1	68037	979	34
1	68121	980	34
1	68219	981	34
1	68301	982	34
1	68373	983	34
1	68451	984	34
1	68523	985	34
1	68597	986	34
1	68667	987	34
1	68739	988	34
1	68817	989	34
1	68883	990	34
1	68945	991	34
1	69047	992	34
1	69107	993	34
1	69163	994	34
1	69231	995	34
1	69323	996	34
1	69387	997	34
1	69457	998	34
1	69539	999	34
1	69617	1000	34
1	69693	1001	34
1	69745	1002	34
1	69837	1003	34
1	69913	1004	34
1	69973	1005	34
1	70027	1006	34
1	70113	1007	34
1	70213	1008	34
1	70297	1009	34
1	70341	1010	34
1	70391	1011	34
1	70463	1012	34
1	70517	1013	34
1	70581	1014	34
1	70643	1015	34
1	70711	1016	34
1	70779	1017	34
1	70863	1018	34
1	70937	1019	34
1	70987	1020	34
1	71045	1021	34
1	71117	1022	34
1	71197	1023	34
1	71271	1024	34
1	71357	1025	34
1	71439	1026	34
1	71519	1027	34
1	71589	1028	34
1	71669	1029	34
1	71739	1030	34
1	71807	1031	34
1	71891	1032	34
1	71953	1033	34
1	72027	1034	34
1	72095	1035	34
1	72159	1036	34
1	72221	1037	34
1	72291	1038	34
1	72363	1039	34
1	72441	1040	34
1	72503	1041	34
1	72589	1042	34
1	72687	1043	34
1	72765	1044	34
1	72837	1045	34
1	72907	1046	34
1	72975	1047	34
1	73049	1048	34
1	73117	1049	34
1	73197	1050	34
1	73279	1051	34
1	73349	1052	34
1	73405	1053	34
1	73467	1054	34
1	73533	1055	34
1	73625	1056	34
1	73681	1057	34
1	73749	1058	34
1	73819	1059	34
1	73899	1060	34
1	73969	1061	34
1	74049	1062	34
1	74143	1063	34
1	74211	1064	34
1	74271	1065	34
1	74355	1066	34
1	74433	1067	34
1	74531	1068	34
1	74617	1069	34
1	74689	1070	34
1	74757	1071	34
1	74837	1072	34
1	74913	1073	34
1	74999	1074	34
1	75063	1075	34
1	75133	1076	34
1	75195	1077	34
1	75287	1078	34
1	75373	1079	34
1	75443	1080	34
1	75489	1081	34
1	75555	1082	34
1	75617	1083	34
1	75673	1084	34
1	75725	1085	34
1	75811	1086	34
1	75899	1087	34
1	75967	1088	34
1	76053	1089	34
1	76151	1090	34
1	76229	1091	34
1	76301	1092	34
1	76377	1093	34
1	76451	1094	34
1	76555	1095	34
1	76613	1096	34
1	76679	1097	34
1	76767	1098	34
1	76849	1099	34
1	76925	1100	34
1	77005	1101	34
1	77065	1102	34
1	77155	1103	34
1	77247	1104	34
1	77325	1105	34
1	77385	1106	34
1	77443	1107	34
1	77521	1108	34
1	77609	1109	34
1	77689	1110	34
1	77765	1111	34
1	77843	1112	34
1	77919	1113	34
1	77995	1114	34
1	78067	1115	34
1	78141	1116	34
1	78201	1117	34
1	78285	1118	34
1	78373	1119	34
1	78465	1120	34
1	78527	1121	34
1	78615	1122	34
1	78703	1123	34
1	78767	1124	34
1	78839	1125	34
1	78903	1126	34
1	78965	1127	34
1	79007	1128	34
1	79069	1129	34
1	79125	1130	34
1	79177	1131	34
1	79273	1132	34
1	79331	1133	34
1	79409	1134	34
1	79493	1135	34
1	79547	1136	34
1	79635	1137	34
1	79699	1138	34
1	79771	1139	34
1	79827	1140	34
1	79871	1141	34
1	79947	1142	34
1	80025	1143	34
1	80103	1144	34
1	80195	1145	34
1	80257	1146	34
1	80315	1147	34
1	80371	1148	34
1	80421	1149	34
1	80465	1150	34
1	80509	1151	34
1	80575	1152	34
1	80647	1153	34
1	80719	1154	34
1	80803	1155	34
1	80905	1156	34
1	80995	1157	34
1	81063	1158	34
1	81155	1159	34
1	81231	1160	34
1	81319	1161	34
1	81397	1162	34
1	81461	1163	34
1	81537	1164	34
1	81587	1165	34
1	81655	1166	34
1	81725	1167	34
1	81783	1168	34
1	81855	1169	34
1	81927	1170	34
1	81963	1171	34
1	82015	1172	34
1	82085	1173	34
1	82157	1174	34
1	82227	1175	34
1	82295	1176	34
1	82381	1177	34
1	82459	1178	34
1	82537	1179	34
1	82607	1180	34
1	82703	1181	34
1	82785	1182	34
1	82889	1183	34
1	82953	1184	34
1	83021	1185	34
1	83095	1186	34
1	83177	1187	34
1	83229	1188	34
1	83315	1189	34
1	83377	1190	34
1	83443	1191	34
1	83527	1192	34
1	83577	1193	34
1	83645	1194	34
1	83723	1195	34
1	83791	1196	34
1	83845	1197	34
1	83909	1198	34
1	83953	1199	34
1	84017	1200	34
1	84069	1201	34
1	84133	1202	34
1	84207	1203	34
1	84295	1204	34
1	84383	1205	34
1	84435	1206	34
1	84515	1207	34
1	84579	1208	34
1	84637	1209	34
1	84699	1210	34
1	84779	1211	34
1	84839	1212	34
1	84905	1213	34
1	84985	1214	34
1	85067	1215	34
1	85127	1216	34
1	85191	1217	34
1	85257	1218	34
1	85309	1219	34
1	85391	1220	34
1	85453	1221	34
1	85525	1222	34
1	85601	1223	34
1	85661	1224	34
1	85733	1225	34
1	85823	1226	34
1	85873	1227	34
1	85951	1228	34
1	86021	1229	34
1	86085	1230	34
1	86149	1231	34
1	86225	1232	34
1	86293	1233	34
1	86357	1234	34
1	86429	1235	34
1	86505	1236	34
1	86575	1237	34
1	86655	1238	34
1	86719	1239	34
1	86775	1240	34
1	86843	1241	34
1	86907	1242	34
1	86973	1243	34
1	87067	1244	34
1	87133	1245	34
1	87207	1246	34
1	87289	1247	34
1	87355	1248	34
1	87419	1249	34
1	87481	1250	34
1	87559	1251	34
1	87631	1252	34
1	87681	1253	34
1	87755	1254	34
1	87823	1255	34
1	87877	1256	34
1	87935	1257	34
1	88003	1258	34
1	88069	1259	34
1	88155	1260	34
1	88233	1261	34
1	88317	1262	34
1	88369	1263	34
1	88443	1264	34
1	88505	1265	34
1	88587	1266	34
1	88659	1267	34
1	88729	1268	34
1	88805	1269	34
1	88875	1270	34
1	88941	1271	34
1	89003	1272	34
1	89067	1273	34
1	89127	1274	34
1	89205	1275	34
1	89295	1276	34
1	89379	1277	34
1	89457	1278	34
1	89539	1279	34
1	89603	1280	34
1	89667	1281	34
1	89725	1282	34
1	89789	1283	34
1	89857	1284	34
1	89931	1285	34
1	90027	1286	34
1	90081	1287	34
1	90151	1288	34
1	90209	1289	34
1	90289	1290	34
1	90381	1291	34
1	90447	1292	34
1	90501	1293	34
1	90565	1294	34
1	90619	1295	34
1	90699	1296	34
1	90781	1297	34
1	90853	1298	34
1	90925	1299	34
1	90985	1300	34
1	91067	1301	34
1	91151	1302	34
1	91217	1303	34
1	91275	1304	34
1	91329	1305	34
1	91407	1306	34
1	91461	1307	34
1	91535	1308	34
1	91613	1309	34
1	91687	1310	34
1	91765	1311	34
1	91815	1312	34
1	91895	1313	34
1	91963	1314	34
1	92041	1315	34
1	92099	1316	34
1	92181	1317	34
1	92235	1318	34
1	92313	1319	34
1	92367	1320	34
1	92417	1321	34
1	92487	1322	34
1	92557	1323	34
1	92623	1324	34
1	92713	1325	34
1	92787	1326	34
1	92861	1327	34
1	92939	1328	34
1	92997	1329	34
1	93075	1330	34
1	93135	1331	34
1	93227	1332	34
1	93305	1333	34
1	93359	1334	34
1	93455	1335	34
1	93545	1336	34
1	93627	1337	34
1	93685	1338	34
1	93759	1339	34
1	93835	1340	34
1	93889	1341	34
1	93957	1342	34
1	94001	1343	34
1	94095	1344	34
1	94167	1345	34
1	94239	1346	34
1	94305	1347	34
1	94367	1348	34
1	94439	1349	34
1	94485	1350	34
1	94551	1351	34
1	94627	1352	34
1	94703	1353	34
1	94769	1354	34
1	94835	1355	34
1	94907	1356	34
1	94989	1357	34
1	95047	1358	34
1	95133	1359	34
1	95221	1360	34
1	95277	1361	34
1	95341	1362	34
1	95439	1363	34
1	95485	1364	34
1	95545	1365	34
1	95611	1366	34
1	95701	1367	34
1	95775	1368	34
1	95841	1369	34
1	95915	1370	34
1	95985	1371	34
1	96053	1372	34
1	96133	1373	34
1	96213	1374	34
1	96285	1375	34
1	96373	1376	34
1	96443	1377	34
1	96521	1378	34
1	96573	1379	34
1	96633	1380	34
1	96701	1381	34
1	96751	1382	34
1	96813	1383	34
1	96901	1384	34
1	96985	1385	34
1	97073	1386	34
1	97135	1387	34
1	97207	1388	34
1	97289	1389	34
1	97347	1390	34
1	97433	1391	34
1	97513	1392	34
1	97589	1393	34
1	97647	1394	34
1	97727	1395	34
1	97795	1396	34
1	97871	1397	34
1	97937	1398	34
1	97997	1399	34
1	98065	1400	34
1	98139	1401	34
1	98225	1402	34
1	98309	1403	34
1	98381	1404	34
1	98445	1405	34
1	98517	1406	34
1	98579	1407	34
1	98659	1408	34
1	98701	1409	34
1	98759	1410	34
1	98839	1411	34
1	98919	1412	34
1	98989	1413	34
1	99087	1414	34
1	99159	1415	34
1	99239	1416	34
1	99329	1417	34
1	99443	1418	34
1	99523	1419	34
2	15	0	1
2	79	1	1
2	151	2	1
2	225	3	1
2	271	4	1
2	339	5	1
2	423	6	1
2	503	7	1
2	573	8	1
2	653	9	1
2	721	10	1
2	791	11	1
2	853	12	1
2	913	13	1
2	987	14	1
2	1057	15	1
2	1117	16	1
2	1213	17	1
2	1279	18	1
2	1337	19	1
2	1399	20	1
2	1461	21	1
2	1539	22	1
2	1625	23	1
2	1695	24	1
2	1761	25	1
2	1819	26	1
2	1885	27	1
2	1957	28	1
2	2015	29	1
2	2091	30	1
2	2171	31	1
2	2219	32	1
2	2297	33	1
2	2375	34	1
2	2433	35	1
2	2505	36	1
2	2565	37	1
2	2643	38	1
2	2705	39	1
2	2775	40	1
2	2849	41	1
2	2949	42	1
2	3015	43	1
2	3103	44	1
2	3165	45	1
2	3225	46	1
2	3265	47	1
2	3331	48	1
2	3385	49	1
2	3465	50	1
2	3529	51	1
2	3573	52	1
2	3669	53	1
2	3741	54	1
2	3829	55	1
2	3911	56	1
2	4005	57	1
2	4073	58	1
2	4153	59	1
2	4247	60	1
2	4305	61	1
2	4369	62	1
2	4449	63	1
2	4499	64	1
2	4567	65	1
2	4617	66	1
2	4705	67	1
2	4787	68	1
2	4887	69	1
2	4947	70	1
2	5017	71	1
2	5077	72	1
2	5145	73	1
2	5215	74	1
2	5259	75	1
2	5329	76	1
2	5381	77	1
2	5469	78	1
2	5537	79	1
2	5603	80	1
2	5671	81	1
2	5739	82	1
2	5795	83	1
2	5869	84	1
2	5941	85	1
2	5997	86	1
2	6065	87	1
2	6143	88	1
2	6245	89	1
2	6313	90	1
2	6373	91	1
2	6423	92	1
2	6501	93	1
2	6559	94	1
2	6623	95	1
2	6679	96	1
2	6757	97	1
2	6827	98	1
2	6913	99	1
2	6979	100	1
2	7061	101	1
2	7109	102	1
2	7185	103	1
2	7255	104	1
2	7311	105	1
2	7355	106	1
2	7425	107	1
2	7507	108	1
2	7551	109	1
2	7613	110	1
2	7701	111	1
2	7773	112	1
2	7841	113	1
2	7919	114	1
2	8001	115	1
2	8087	116	1
2	8137	117	1
2	8199	118	1
2	8293	119	1
2	8377	120	1
2	8463	121	1
2	8521	122	1
2	8597	123	1
2	8687	124	1
2	8747	125	1
2	8805	126	1
2	8883	127	1
2	8945	128	1
2	8997	129	1
2	9053	130	1
2	9127	131	1
2	9195	132	1
2	9281	133	1
2	9339	134	1
2	9411	135	1
2	9475	136	1
2	9557	137	1
2	9657	138	1
2	9733	139	1
2	9821	140	1
2	9889	141	1
2	9959	142	1
2	10013	143	1
2	10093	144	1
2	10161	145	1
2	10235	146	1
2	10309	147	1
2	10371	148	1
2	10431	149	1
2	10501	150	1
2	10569	151	1
2	10643	152	1
2	10707	153	1
2	10773	154	1
2	10835	155	1
2	10911	156	1
2	10985	157	1
2	11051	158	1
2	11105	159	1
2	11181	160	1
2	11237	161	1
2	11329	162	1
2	11379	163	1
2	11449	164	1
2	11501	165	1
2	11559	166	1
2	11645	167	1
2	11721	168	1
2	11797	169	1
2	11879	170	1
2	11949	171	1
2	11999	172	1
2	12077	173	1
2	12143	174	1
2	12211	175	1
2	12311	176	1
2	12373	177	1
2	12467	178	1
2	12543	179	1
2	12605	180	1
2	12669	181	1
2	12717	182	1
2	12791	183	1
2	12851	184	1
2	12905	185	1
2	12965	186	1
2	13037	187	1
2	13113	188	1
2	13173	189	1
2	13229	190	1
2	13285	191	1
2	13361	192	1
2	13443	193	1
2	13531	194	1
2	13583	195	1
2	13659	196	1
2	13737	197	1
2	13793	198	1
2	13849	199	1
2	13909	200	1
2	13961	201	1
2	14035	202	1
2	14111	203	1
2	14185	204	1
2	14267	205	1
2	14325	206	1
2	14369	207	1
2	14437	208	1
2	14541	209	1
2	14625	210	1
2	14677	211	1
2	14731	212	1
2	14795	213	1
2	14843	214	1
2	14873	215	1
2	14943	216	1
2	15011	217	1
2	15109	218	1
2	15181	219	1
2	15247	220	1
2	15297	221	1
2	15353	222	1
2	15415	223	1
2	15485	224	1
2	15561	225	1
2	15607	226	1
2	15679	227	1
2	15767	228	1
2	15831	229	1
2	15917	230	1
2	15997	231	1
2	16047	232	1
2	16109	233	1
2	16175	234	1
2	16253	235	1
2	16341	236	1
2	16397	237	1
2	16457	238	1
2	16523	239	1
2	16593	240	1
2	16687	241	1
2	16741	242	1
2	16807	243	1
2	16863	244	1
2	16913	245	1
2	16989	246	1
2	17057	247	1
2	17129	248	1
2	17189	249	1
2	17251	250	1
2	17319	251	1
2	17417	252	1
2	17485	253	1
2	17545	254	1
2	17599	255	1
2	17675	256	1
2	17729	257	1
2	17795	258	1
2	17865	259	1
2	17929	260	1
2	17977	261	1
2	18043	262	1
2	18095	263	1
2	18169	264	1
2	18249	265	1
2	18311	266	1
2	18369	267	1
2	18439	268	1
2	18531	269	1
2	18599	270	1
2	18671	271	1
2	18735	272	1
2	18819	273	1
2	18871	274	1
2	18933	275	1
2	19009	276	1
2	19091	277	1
2	19145	278	1
2	19221	279	1
2	19301	280	1
2	19357	281	1
2	19407	282	1
2	19489	283	1
2	19533	284	1
2	19607	285	1
2	19677	286	1
2	19725	287	1
2	19817	288	1
2	19895	289	1
2	19971	290	1
2	20049	291	1
2	20123	292	1
2	20197	293	1
2	20275	294	1
2	20349	295	1
2	20441	296	1
2	20517	297	1
2	20611	298	1
2	20699	299	1
2	20761	300	1
2	20827	301	1
2	20909	302	1
2	20967	303	1
2	21023	304	1
2	21081	305	1
2	21143	306	1
2	21213	307	1
2	21281	308	1
2	21317	309	1
2	21375	310	1
2	21437	311	1
2	21503	312	1
2	21569	313	1
2	21641	314	1
2	21709	315	1
2	21791	316	1
2	21861	317	1
2	21945	318	1
2	22001	319	1
2	22077	320	1
2	22141	321	1
2	22219	322	1
2	22293	323	1
2	22347	324	1
2	22427	325	1
2	22493	326	1
2	22575	327	1
2	22645	328	1
2	22715	329	1
2	22791	330	1
2	22865	331	1
2	22935	332	1
2	23007	333	1
2	23071	334	1
2	23129	335	1
2	23185	336	1
2	23269	337	1
2	23317	338	1
2	23395	339	1
2	23471	340	1
2	23549	341	1
2	23637	342	1
2	23733	343	1
2	23805	344	1
2	23879	345	1
2	23943	346	1
2	24011	347	1
2	24083	348	1
2	24129	349	1
2	24207	350	1
2	24285	351	1
2	24369	352	1
2	24455	353	1
2	24517	354	1
2	24603	355	1
2	24669	356	1
2	24727	357	1
2	24817	358	1
2	24899	359	1
2	24961	360	1
2	25017	361	1
2	25091	362	1
2	25157	363	1
2	25239	364	1
2	25291	365	1
2	25357	366	1
2	25421	367	1
2	25499	368	1
2	25555	369	1
2	25609	370	1
2	25689	371	1
2	25747	372	1
2	25813	373	1
2	25879	374	1
2	25955	375	1
2	26033	376	1
2	26115	377	1
2	26155	378	1
2	26223	379	1
2	26283	380	1
2	26345	381	1
2	26407	382	1
2	26459	383	1
2	26523	384	1
2	26581	385	1
2	26647	386	1
2	26719	387	1
2	26777	388	1
2	26835	389	1
2	26909	390	1
2	26967	391	1
2	27043	392	1
2	27111	393	1
2	27163	394	1
2	27233	395	1
2	27299	396	1
2	27369	397	1
2	27451	398	1
2	27511	399	1
2	27561	400	1
2	27645	401	1
2	27713	402	1
2	27765	403	1
2	27825	404	1
2	27899	405	1
2	27965	406	1
2	28041	407	1
2	28127	408	1
2	28201	409	1
2	28257	410	1
2	28345	411	1
2	28441	412	1
2	28505	413	1
2	28575	414	1
2	28629	415	1
2	28691	416	1
2	28741	417	1
2	28809	418	1
2	28891	419	1
2	28965	420	1
2	29037	421	1
2	29109	422	1
2	29195	423	1
2	29259	424	1
2	29319	425	1
2	29399	426	1
2	29475	427	1
2	29543	428	1
2	29619	429	1
2	29677	430	1
2	29757	431	1
2	29813	432	1
2	29881	433	1
2	29955	434	1
2	30019	435	1
2	30073	436	1
2	30125	437	1
2	30223	438	1
2	30283	439	1
2	30351	440	1
2	30409	441	1
2	30501	442	1
2	30579	443	1
2	30639	444	1
2	30709	445	1
2	30785	446	1
2	30841	447	1
2	30895	448	1
2	30969	449	1
2	31039	450	1
2	31101	451	1
2	31183	452	1
2	31237	453	1
2	31295	454	1
2	31377	455	1
2	31447	456	1
2	31495	457	1
2	31577	458	1
2	31643	459	1
2	31729	460	1
2	31807	461	1
2	31857	462	1
2	31935	463	1
2	32009	464	1
2	32079	465	1
2	32147	466	1
2	32219	467	1
2	32287	468	1
2	32349	469	1
2	32399	470	1
2	32461	471	1
2	32531	472	1
2	32599	473	1
2	32695	474	1
2	32761	475	1
2	32829	476	1
2	32907	477	1
2	32971	478	1
2	33029	479	1
2	33087	480	1
2	33153	481	1
2	33211	482	1
2	33283	483	1
2	33359	484	1
2	33425	485	1
2	33479	486	1
2	33551	487	1
2	33599	488	1
2	33643	489	1
2	33725	490	1
2	33817	491	1
2	33917	492	1
2	33973	493	1
2	34031	494	1
2	34077	495	1
2	34143	496	1
2	34219	497	1
2	34303	498	1
2	34353	499	1
2	34415	500	1
2	34499	501	1
2	34555	502	1
2	34627	503	1
2	34691	504	1
2	34757	505	1
2	34829	506	1
2	34901	507	1
2	34965	508	1
2	35053	509	1
2	35127	510	1
2	35205	511	1
2	35263	512	1
2	35325	513	1
2	35409	514	1
2	35509	515	1
2	35563	516	1
2	35623	517	1
2	35709	518	1
2	35795	519	1
2	35871	520	1
2	35915	521	1
2	35987	522	1
2	36039	523	1
2	36119	524	1
2	36183	525	1
2	36239	526	1
2	36335	527	1
2	36403	528	1
2	36477	529	1
2	36547	530	1
2	36609	531	1
2	36699	532	1
2	36775	533	1
2	36839	534	1
2	36909	535	1
2	36975	536	1
2	37033	537	1
2	37107	538	1
2	37183	539	1
2	37257	540	1
2	37331	541	1
2	37417	542	1
2	37501	543	1
2	37553	544	1
2	37625	545	1
2	37707	546	1
2	37811	547	1
2	37885	548	1
2	37961	549	1
2	38019	550	1
2	38081	551	1
2	38133	552	1
2	38193	553	1
2	38269	554	1
2	38337	555	1
2	38391	556	1
2	38457	557	1
2	38519	558	1
2	38613	559	1
2	38675	560	1
2	38727	561	1
2	38799	562	1
2	38861	563	1
2	38927	564	1
2	39001	565	1
2	39071	566	1
2	39133	567	1
2	39199	568	1
2	39277	569	1
2	39327	570	1
2	39413	571	1
2	39487	572	1
2	39553	573	1
2	39599	574	1
2	39659	575	1
2	39725	576	1
2	39779	577	1
2	39851	578	1
2	39919	579	1
2	39983	580	1
2	40057	581	1
2	40133	582	1
2	40213	583	1
2	40295	584	1
2	40361	585	1
2	40435	586	1
2	40535	587	1
2	40611	588	1
2	40675	589	1
2	40727	590	1
2	40795	591	1
2	40849	592	1
2	40921	593	1
2	40985	594	1
2	41053	595	1
2	41121	596	1
2	41171	597	1
2	41239	598	1
2	41307	599	1
2	41367	600	1
2	41445	601	1
2	41545	602	1
2	41627	603	1
2	41725	604	1
2	41799	605	1
2	41869	606	1
2	41921	607	1
2	41995	608	1
2	42067	609	1
2	42145	610	1
2	42227	611	1
2	42285	612	1
2	42337	613	1
2	42395	614	1
2	42491	615	1
2	42573	616	1
2	42657	617	1
2	42727	618	1
2	42789	619	1
2	42857	620	1
2	42925	621	1
2	42993	622	1
2	43063	623	1
2	43147	624	1
2	43211	625	1
2	43295	626	1
2	43379	627	1
2	43441	628	1
2	43495	629	1
2	43561	630	1
2	43669	631	1
2	43775	632	1
2	43849	633	1
2	43915	634	1
2	43981	635	1
2	44051	636	1
2	44111	637	1
2	44153	638	1
2	44199	639	1
2	44275	640	1
2	44349	641	1
2	44413	642	1
2	44485	643	1
2	44545	644	1
2	44617	645	1
2	44681	646	1
2	44745	647	1
2	44817	648	1
2	44899	649	1
2	44967	650	1
2	45031	651	1
2	45089	652	1
2	45145	653	1
2	45253	654	1
2	45339	655	1
2	45423	656	1
2	45487	657	1
2	45563	658	1
2	45641	659	1
2	45721	660	1
2	45795	661	1
2	45875	662	1
2	45949	663	1
2	46027	664	1
2	46109	665	1
2	46193	666	1
2	46281	667	1
2	46349	668	1
2	46421	669	1
2	46505	670	1
2	46569	671	1
2	46611	672	1
2	46691	673	1
2	46777	674	1
2	46841	675	1
2	46923	676	1
2	47009	677	1
2	47053	678	1
2	47123	679	1
2	47189	680	1
2	47261	681	1
2	47361	682	1
2	47441	683	1
2	47507	684	1
2	47563	685	1
2	47621	686	1
2	47677	687	1
2	47735	688	1
2	47817	689	1
2	47911	690	1
2	47975	691	1
2	48067	692	1
2	48137	693	1
2	48213	694	1
2	48283	695	1
2	48347	696	1
2	48407	697	1
2	48477	698	1
2	48547	699	1
2	48631	700	1
2	48719	701	1
2	48805	702	1
2	48873	703	1
2	48929	704	1
2	48975	705	1
2	49053	706	1
2	49125	707	1
2	49215	708	1
2	49293	709	1
2	49355	710	1
2	49433	711	1
2	49491	712	1
2	49573	713	1
2	49643	714	1
2	49701	715	1
2	49781	716	1
2	49849	717	1
2	49907	718	1
2	49965	719	1
2	50041	720	1
2	50117	721	1
2	50213	722	1
2	50273	723	1
2	50353	724	1
2	50427	725	1
2	50491	726	1
2	50559	727	1
2	50633	728	1
2	50699	729	1
2	50767	730	1
2	50827	731	1
2	50879	732	1
2	50941	733	1
2	51011	734	1
2	51095	735	1
2	51183	736	1
2	51265	737	1
2	51341	738	1
2	51417	739	1
2	51501	740	1
2	51557	741	1
2	51639	742	1
2	51741	743	1
2	51829	744	1
2	51895	745	1
2	51947	746	1
2	52033	747	1
2	52089	748	1
2	52149	749	1
2	52233	750	1
2	52297	751	1
2	52371	752	1
2	52433	753	1
2	52511	754	1
2	52585	755	1
2	52665	756	1
2	52733	757	1
2	52809	758	1
2	52873	759	1
2	52923	760	1
2	52995	761	1
2	53087	762	1
2	53157	763	1
2	53233	764	1
2	53299	765	1
2	53385	766	1
2	53465	767	1
2	53529	768	1
2	53601	769	1
2	53669	770	1
2	53745	771	1
2	53811	772	1
2	53893	773	1
2	53969	774	1
2	54027	775	1
2	54083	776	1
2	54157	777	1
2	54235	778	1
2	54309	779	1
2	54375	780	1
2	54459	781	1
2	54527	782	1
2	54597	783	1
2	54667	784	1
2	54757	785	1
2	54843	786	1
2	54903	787	1
2	54973	788	1
2	55033	789	1
2	55113	790	1
2	55185	791	1
2	55241	792	1
2	55325	793	1
2	55383	794	1
2	55477	795	1
2	55559	796	1
2	55641	797	1
2	55723	798	1
2	55801	799	1
2	55901	800	1
2	55971	801	1
2	56043	802	1
2	56121	803	1
2	56187	804	1
2	56281	805	1
2	56363	806	1
2	56445	807	1
2	56529	808	1
2	56599	809	1
2	56679	810	1
2	56733	811	1
2	56791	812	1
2	56861	813	1
2	56933	814	1
2	57005	815	1
2	57059	816	1
2	57111	817	1
2	57187	818	1
2	57233	819	1
2	57321	820	1
2	57373	821	1
2	57449	822	1
2	57493	823	1
2	57549	824	1
2	57621	825	1
2	57681	826	1
2	57767	827	1
2	57835	828	1
2	57905	829	1
2	57987	830	1
2	58065	831	1
2	58119	832	1
2	58183	833	1
2	58241	834	1
2	58301	835	1
2	58385	836	1
2	58471	837	1
2	58531	838	1
2	58617	839	1
2	58683	840	1
2	58747	841	1
2	58821	842	1
2	58907	843	1
2	58983	844	1
2	59049	845	1
2	59117	846	1
2	59185	847	1
2	59247	848	1
2	59297	849	1
2	59365	850	1
2	59411	851	1
2	59475	852	1
2	59533	853	1
2	59577	854	1
2	59641	855	1
2	59725	856	1
2	59779	857	1
2	59865	858	1
2	59941	859	1
2	59993	860	1
2	60061	861	1
2	60131	862	1
2	60189	863	1
2	60251	864	1
2	60301	865	1
2	60387	866	1
2	60457	867	1
2	60527	868	1
2	60601	869	1
2	60675	870	1
2	60739	871	1
2	60803	872	1
2	60889	873	1
2	60953	874	1
2	61035	875	1
2	61109	876	1
2	61167	877	1
2	61229	878	1
2	61285	879	1
2	61361	880	1
2	61441	881	1
2	61521	882	1
2	61579	883	1
2	61643	884	1
2	61705	885	1
2	61747	886	1
2	61817	887	1
2	61895	888	1
2	61969	889	1
2	62055	890	1
2	62133	891	1
2	62183	892	1
2	62235	893	1
2	62293	894	1
2	62343	895	1
2	62407	896	1
2	62461	897	1
2	62543	898	1
2	62619	899	1
2	62691	900	1
2	62779	901	1
2	62839	902	1
2	62893	903	1
2	62975	904	1
2	63041	905	1
2	63099	906	1
2	63189	907	1
2	63269	908	1
2	63331	909	1
2	63405	910	1
2	63463	911	1
2	63535	912	1
2	63585	913	1
2	63635	914	1
2	63707	915	1
2	63775	916	1
2	63857	917	1
2	63927	918	1
2	63993	919	1
2	64069	920	1
2	64127	921	1
2	64187	922	1
2	64261	923	1
2	64321	924	1
2	64407	925	1
2	64503	926	1
2	64567	927	1
2	64639	928	1
2	64701	929	1
2	64775	930	1
2	64831	931	1
2	64913	932	1
2	64969	933	1
2	65035	934	1
2	65121	935	1
2	65185	936	1
2	65241	937	1
2	65297	938	1
2	65385	939	1
2	65451	940	1
2	65533	941	1
2	65597	942	1
2	65667	943	1
2	65731	944	1
2	65789	945	1
2	65859	946	1
2	65921	947	1
2	66003	948	1
2	66057	949	1
2	66111	950	1
2	66177	951	1
2	66235	952	1
2	66283	953	1
2	66343	954	1
2	66403	955	1
2	66465	956	1
2	66551	957	1
2	66623	958	1
2	66705	959	1
2	66807	960	1
2	66893	961	1
2	66951	962	1
2	67029	963	1
2	67101	964	1
2	67165	965	1
2	67227	966	1
2	67289	967	1
2	67329	968	1
2	67407	969	1
2	67461	970	1
2	67523	971	1
2	67609	972	1
2	67669	973	1
2	67725	974	1
2	67791	975	1
2	67863	976	1
2	67929	977	1
2	67983	978	1
2	68037	979	1
2	68121	980	1
2	68219	981	1
2	68301	982	1
2	68373	983	1
2	68451	984	1
2	68523	985	1
2	68597	986	1
2	68667	987	1
2	68739	988	1
2	68817	989	1
2	68883	990	1
2	68945	991	1
2	69047	992	1
2	69107	993	1
2	69163	994	1
2	69231	995	1
2	69323	996	1
2	69387	997	1
2	69457	998	1
2	69539	999	1
2	69617	1000	1
2	69693	1001	1
2	69745	1002	1
2	69837	1003	1
2	69913	1004	1
2	69973	1005	1
2	70027	1006	1
2	70113	1007	1
2	70213	1008	1
2	70297	1009	1
2	70341	1010	1
2	70391	1011	1
2	70463	1012	1
2	70517	1013	1
2	70581	1014	1
2	70643	1015	1
2	70711	1016	1
2	70779	1017	1
2	70863	1018	1
2	70937	1019	1
2	70987	1020	1
2	71045	1021	1
2	71117	1022	1
2	71197	1023	1
2	71271	1024	1
2	71357	1025	1
2	71439	1026	1
2	71519	1027	1
2	71589	1028	1
2	71669	1029	1
2	71739	1030	1
2	71807	1031	1
2	71891	1032	1
2	71953	1033	1
2	72027	1034	1
2	72095	1035	1
2	72159	1036	1
2	72221	1037	1
2	72291	1038	1
2	72363	1039	1
2	72441	1040	1
2	72503	1041	1
2	72589	1042	1
2	72687	1043	1
2	72765	1044	1
2	72837	1045	1
2	72907	1046	1
2	72975	1047	1
2	73049	1048	1
2	73117	1049	1
2	73197	1050	1
2	73279	1051	1
2	73349	1052	1
2	73405	1053	1
2	73467	1054	1
2	73533	1055	1
2	73625	1056	1
2	73681	1057	1
2	73749	1058	1
2	73819	1059	1
2	73899	1060	1
2	73969	1061	1
2	74049	1062	1
2	74143	1063	1
2	74211	1064	1
2	74271	1065	1
2	74355	1066	1
2	74433	1067	1
2	74531	1068	1
2	74617	1069	1
2	74689	1070	1
2	74757	1071	1
2	74837	1072	1
2	74913	1073	1
2	74999	1074	1
2	75063	1075	1
2	75133	1076	1
2	75195	1077	1
2	75287	1078	1
2	75373	1079	1
2	75443	1080	1
2	75489	1081	1
2	75555	1082	1
2	75617	1083	1
2	75673	1084	1
2	75725	1085	1
2	75811	1086	1
2	75899	1087	1
2	75967	1088	1
2	76053	1089	1
2	76151	1090	1
2	76229	1091	1
2	76301	1092	1
2	76377	1093	1
2	76451	1094	1
2	76555	1095	1
2	76613	1096	1
2	76679	1097	1
2	76767	1098	1
2	76849	1099	1
2	76925	1100	1
2	77005	1101	1
2	77065	1102	1
2	77155	1103	1
2	77247	1104	1
2	77325	1105	1
2	77385	1106	1
2	77443	1107	1
2	77521	1108	1
2	77609	1109	1
2	77689	1110	1
2	77765	1111	1
2	77843	1112	1
2	77919	1113	1
2	77995	1114	1
2	78067	1115	1
2	78141	1116	1
2	78201	1117	1
2	78285	1118	1
2	78373	1119	1
2	78465	1120	1
2	78527	1121	1
2	78615	1122	1
2	78703	1123	1
2	78767	1124	1
2	78839	1125	1
2	78903	1126	1
2	78965	1127	1
2	79007	1128	1
2	79069	1129	1
2	79125	1130	1
2	79177	1131	1
2	79273	1132	1
2	79331	1133	1
2	79409	1134	1
2	79493	1135	1
2	79547	1136	1
2	79635	1137	1
2	79699	1138	1
2	79771	1139	1
2	79827	1140	1
2	79871	1141	1
2	79947	1142	1
2	80025	1143	1
2	80103	1144	1
2	80195	1145	1
2	80257	1146	1
2	80315	1147	1
2	80371	1148	1
2	80421	1149	1
2	80465	1150	1
2	80509	1151	1
2	80575	1152	1
2	80647	1153	1
2	80719	1154	1
2	80803	1155	1
2	80905	1156	1
2	80995	1157	1
2	81063	1158	1
2	81155	1159	1
2	81231	1160	1
2	81319	1161	1
2	81397	1162	1
2	81461	1163	1
2	81537	1164	1
2	81587	1165	1
2	81655	1166	1
2	81725	1167	1
2	81783	1168	1
2	81855	1169	1
2	81927	1170	1
2	81963	1171	1
2	82015	1172	1
2	82085	1173	1
2	82157	1174	1
2	82227	1175	1
2	82295	1176	1
2	82381	1177	1
2	82459	1178	1
2	82537	1179	1
2	82607	1180	1
2	82703	1181	1
2	82785	1182	1
2	82889	1183	1
2	82953	1184	1
2	83021	1185	1
2	83095	1186	1
2	83177	1187	1
2	83229	1188	1
2	83315	1189	1
2	83377	1190	1
2	83443	1191	1
2	83527	1192	1
2	83577	1193	1
2	83645	1194	1
2	83723	1195	1
2	83791	1196	1
2	83845	1197	1
2	83909	1198	1
2	83953	1199	1
2	84017	1200	1
2	84069	1201	1
2	84133	1202	1
2	84207	1203	1
2	84295	1204	1
2	84383	1205	1
2	84435	1206	1
2	84515	1207	1
2	84579	1208	1
2	84637	1209	1
2	84699	1210	1
2	84779	1211	1
2	84839	1212	1
2	84905	1213	1
2	84985	1214	1
2	85067	1215	1
2	85127	1216	1
2	85191	1217	1
2	85257	1218	1
2	85309	1219	1
2	85391	1220	1
2	85453	1221	1
2	85525	1222	1
2	85601	1223	1
2	85661	1224	1
2	85733	1225	1
2	85823	1226	1
2	85873	1227	1
2	85951	1228	1
2	86021	1229	1
2	86085	1230	1
2	86149	1231	1
2	86225	1232	1
2	86293	1233	1
2	86357	1234	1
2	86429	1235	1
2	86505	1236	1
2	86575	1237	1
2	86655	1238	1
2	86719	1239	1
2	86775	1240	1
2	86843	1241	1
2	86907	1242	1
2	86973	1243	1
2	87067	1244	1
2	87133	1245	1
2	87207	1246	1
2	87289	1247	1
2	87355	1248	1
2	87419	1249	1
2	87481	1250	1
2	87559	1251	1
2	87631	1252	1
2	87681	1253	1
2	87755	1254	1
2	87823	1255	1
2	87877	1256	1
2	87935	1257	1
2	88003	1258	1
2	88069	1259	1
2	88155	1260	1
2	88233	1261	1
2	88317	1262	1
2	88369	1263	1
2	88443	1264	1
2	88505	1265	1
2	88587	1266	1
2	88659	1267	1
2	88729	1268	1
2	88805	1269	1
2	88875	1270	1
2	88941	1271	1
2	89003	1272	1
2	89067	1273	1
2	89127	1274	1
2	89205	1275	1
2	89295	1276	1
2	89379	1277	1
2	89457	1278	1
2	89539	1279	1
2	89603	1280	1
2	89667	1281	1
2	89725	1282	1
2	89789	1283	1
2	89857	1284	1
2	89931	1285	1
2	90027	1286	1
2	90081	1287	1
2	90151	1288	1
2	90209	1289	1
2	90289	1290	1
2	90381	1291	1
2	90447	1292	1
2	90501	1293	1
2	90565	1294	1
2	90619	1295	1
2	90699	1296	1
2	90781	1297	1
2	90853	1298	1
2	90925	1299	1
2	90985	1300	1
2	91067	1301	1
2	91151	1302	1
2	91217	1303	1
2	91275	1304	1
2	91329	1305	1
2	91407	1306	1
2	91461	1307	1
2	91535	1308	1
2	91613	1309	1
2	91687	1310	1
2	91765	1311	1
2	91815	1312	1
2	91895	1313	1
2	91963	1314	1
2	92041	1315	1
2	92099	1316	1
2	92181	1317	1
2	92235	1318	1
2	92313	1319	1
2	92367	1320	1
2	92417	1321	1
2	92487	1322	1
2	92557	1323	1
2	92623	1324	1
2	92713	1325	1
2	92787	1326	1
2	92861	1327	1
2	92939	1328	1
2	92997	1329	1
2	93075	1330	1
2	93135	1331	1
2	93227	1332	1
2	93305	1333	1
2	93359	1334	1
2	93455	1335	1
2	93545	1336	1
2	93627	1337	1
2	93685	1338	1
2	93759	1339	1
2	93835	1340	1
2	93889	1341	1
2	93957	1342	1
2	94001	1343	1
2	94095	1344	1
2	94167	1345	1
2	94239	1346	1
2	94305	1347	1
2	94367	1348	1
2	94439	1349	1
2	94485	1350	1
2	94551	1351	1
2	94627	1352	1
2	94703	1353	1
2	94769	1354	1
2	94835	1355	1
2	94907	1356	1
2	94989	1357	1
2	95047	1358	1
2	95133	1359	1
2	95221	1360	1
2	95277	1361	1
2	95341	1362	1
2	95439	1363	1
2	95485	1364	1
2	95545	1365	1
2	95611	1366	1
2	95701	1367	1
2	95775	1368	1
2	95841	1369	1
2	95915	1370	1
2	95985	1371	1
2	96053	1372	1
2	96133	1373	1
2	96213	1374	1
2	96285	1375	1
2	96373	1376	1
2	96443	1377	1
2	96521	1378	1
2	96573	1379	1
2	96633	1380	1
2	96701	1381	1
2	96751	1382	1
2	96813	1383	1
2	96901	1384	1
2	96985	1385	1
2	97073	1386	1
2	97135	1387	1
2	97207	1388	1
2	97289	1389	1
2	97347	1390	1
2	97433	1391	1
2	97513	1392	1
2	97589	1393	1
2	97647	1394	1
2	97727	1395	1
2	97795	1396	1
2	97871	1397	1
2	97937	1398	1
2	97997	1399	1
2	98065	1400	1
2	98139	1401	1
2	98225	1402	1
2	98309	1403	1
2	98381	1404	1
2	98445	1405	1
2	98517	1406	1
2	98579	1407	1
2	98659	1408	1
2	98701	1409	1
2	98759	1410	1
2	98839	1411	1
2	98919	1412	1
2	98989	1413	1
2	99087	1414	1
2	99159	1415	1
2	99239	1416	1
2	99329	1417	1
2	99443	1418	1
2	99523	1419	1
3	15	0	5
3	79	1	5
3	151	2	5
3	225	3	5
3	271	4	5
3	339	5	5
3	423	6	5
3	503	7	5
3	573	8	5
3	653	9	5
3	721	10	5
3	791	11	5
3	853	12	5
3	913	13	5
3	987	14	5
3	1057	15	5
3	1117	16	5
3	1213	17	5
3	1279	18	5
3	1337	19	5
3	1399	20	5
3	1461	21	5
3	1539	22	5
3	1625	23	5
3	1695	24	5
3	1761	25	5
3	1819	26	5
3	1885	27	5
3	1957	28	5
3	2015	29	5
3	2091	30	5
3	2171	31	5
3	2219	32	5
3	2297	33	5
3	2375	34	5
3	2433	35	5
3	2505	36	5
3	2565	37	5
3	2643	38	5
3	2705	39	5
3	2775	40	5
3	2849	41	5
3	2949	42	5
3	3015	43	5
3	3103	44	5
3	3165	45	5
3	3225	46	5
3	3265	47	5
3	3331	48	5
3	3385	49	5
3	3465	50	5
3	3529	51	5
3	3573	52	5
3	3669	53	5
3	3741	54	5
3	3829	55	5
3	3911	56	5
3	4005	57	5
3	4073	58	5
3	4153	59	5
3	4247	60	5
3	4305	61	5
3	4369	62	5
3	4449	63	5
3	4499	64	5
3	4567	65	5
3	4617	66	5
3	4705	67	5
3	4787	68	5
3	4887	69	5
3	4947	70	5
3	5017	71	5
3	5077	72	5
3	5145	73	5
3	5215	74	5
3	5259	75	5
3	5329	76	5
3	5381	77	5
3	5469	78	5
3	5537	79	5
3	5603	80	5
3	5671	81	5
3	5739	82	5
3	5795	83	5
3	5869	84	5
3	5941	85	5
3	5997	86	5
3	6065	87	5
3	6143	88	5
3	6245	89	5
3	6313	90	5
3	6373	91	5
3	6423	92	5
3	6501	93	5
3	6559	94	5
3	6623	95	5
3	6679	96	5
3	6757	97	5
3	6827	98	5
3	6913	99	5
3	6979	100	5
3	7061	101	5
3	7109	102	5
3	7185	103	5
3	7255	104	5
3	7311	105	5
3	7355	106	5
3	7425	107	5
3	7507	108	5
3	7551	109	5
3	7613	110	5
3	7701	111	5
3	7773	112	5
3	7841	113	5
3	7919	114	5
3	8001	115	5
3	8087	116	5
3	8137	117	5
3	8199	118	5
3	8293	119	5
3	8377	120	5
3	8463	121	5
3	8521	122	5
3	8597	123	5
3	8687	124	5
3	8747	125	5
3	8805	126	5
3	8883	127	5
3	8945	128	5
3	8997	129	5
3	9053	130	5
3	9127	131	5
3	9195	132	5
3	9281	133	5
3	9339	134	5
3	9411	135	5
3	9475	136	5
3	9557	137	5
3	9657	138	5
3	9733	139	5
3	9821	140	5
3	9889	141	5
3	9959	142	5
3	10013	143	5
3	10093	144	5
3	10161	145	5
3	10235	146	5
3	10309	147	5
3	10371	148	5
3	10431	149	5
3	10501	150	5
3	10569	151	5
3	10643	152	5
3	10707	153	5
3	10773	154	5
3	10835	155	5
3	10911	156	5
3	10985	157	5
3	11051	158	5
3	11105	159	5
3	11181	160	5
3	11237	161	5
3	11329	162	5
3	11379	163	5
3	11449	164	5
3	11501	165	5
3	11559	166	5
3	11645	167	5
3	11721	168	5
3	11797	169	5
3	11879	170	5
3	11949	171	5
3	11999	172	5
3	12077	173	5
3	12143	174	5
3	12211	175	5
3	12311	176	5
3	12373	177	5
3	12467	178	5
3	12543	179	5
3	12605	180	5
3	12669	181	5
3	12717	182	5
3	12791	183	5
3	12851	184	5
3	12905	185	5
3	12965	186	5
3	13037	187	5
3	13113	188	5
3	13173	189	5
3	13229	190	5
3	13285	191	5
3	13361	192	5
3	13443	193	5
3	13531	194	5
3	13583	195	5
3	13659	196	5
3	13737	197	5
3	13793	198	5
3	13849	199	5
3	13909	200	5
3	13961	201	5
3	14035	202	5
3	14111	203	5
3	14185	204	5
3	14267	205	5
3	14325	206	5
3	14369	207	5
3	14437	208	5
3	14541	209	5
3	14625	210	5
3	14677	211	5
3	14731	212	5
3	14795	213	5
3	14843	214	5
3	14873	215	5
3	14943	216	5
3	15011	217	5
3	15109	218	5
3	15181	219	5
3	15247	220	5
3	15297	221	5
3	15353	222	5
3	15415	223	5
3	15485	224	5
3	15561	225	5
3	15607	226	5
3	15679	227	5
3	15767	228	5
3	15831	229	5
3	15917	230	5
3	15997	231	5
3	16047	232	5
3	16109	233	5
3	16175	234	5
3	16253	235	5
3	16341	236	5
3	16397	237	5
3	16457	238	5
3	16523	239	5
3	16593	240	5
3	16687	241	5
3	16741	242	5
3	16807	243	5
3	16863	244	5
3	16913	245	5
3	16989	246	5
3	17057	247	5
3	17129	248	5
3	17189	249	5
3	17251	250	5
3	17319	251	5
3	17417	252	5
3	17485	253	5
3	17545	254	5
3	17599	255	5
3	17675	256	5
3	17729	257	5
3	17795	258	5
3	17865	259	5
3	17929	260	5
3	17977	261	5
3	18043	262	5
3	18095	263	5
3	18169	264	5
3	18249	265	5
3	18311	266	5
3	18369	267	5
3	18439	268	5
3	18531	269	5
3	18599	270	5
3	18671	271	5
3	18735	272	5
3	18819	273	5
3	18871	274	5
3	18933	275	5
3	19009	276	5
3	19091	277	5
3	19145	278	5
3	19221	279	5
3	19301	280	5
3	19357	281	5
3	19407	282	5
3	19489	283	5
3	19533	284	5
3	19607	285	5
3	19677	286	5
3	19725	287	5
3	19817	288	5
3	19895	289	5
3	19971	290	5
3	20049	291	5
3	20123	292	5
3	20197	293	5
3	20275	294	5
3	20349	295	5
3	20441	296	5
3	20517	297	5
3	20611	298	5
3	20699	299	5
3	20761	300	5
3	20827	301	5
3	20909	302	5
3	20967	303	5
3	21023	304	5
3	21081	305	5
3	21143	306	5
3	21213	307	5
3	21281	308	5
3	21317	309	5
3	21375	310	5
3	21437	311	5
3	21503	312	5
3	21569	313	5
3	21641	314	5
3	21709	315	5
3	21791	316	5
3	21861	317	5
3	21945	318	5
3	22001	319	5
3	22077	320	5
3	22141	321	5
3	22219	322	5
3	22293	323	5
3	22347	324	5
3	22427	325	5
3	22493	326	5
3	22575	327	5
3	22645	328	5
3	22715	329	5
3	22791	330	5
3	22865	331	5
3	22935	332	5
3	23007	333	5
3	23071	334	5
3	23129	335	5
3	23185	336	5
3	23269	337	5
3	23317	338	5
3	23395	339	5
3	23471	340	5
3	23549	341	5
3	23637	342	5
3	23733	343	5
3	23805	344	5
3	23879	345	5
3	23943	346	5
3	24011	347	5
3	24083	348	5
3	24129	349	5
3	24207	350	5
3	24285	351	5
3	24369	352	5
3	24455	353	5
3	24517	354	5
3	24603	355	5
3	24669	356	5
3	24727	357	5
3	24817	358	5
3	24899	359	5
3	24961	360	5
3	25017	361	5
3	25091	362	5
3	25157	363	5
3	25239	364	5
3	25291	365	5
3	25357	366	5
3	25421	367	5
3	25499	368	5
3	25555	369	5
3	25609	370	5
3	25689	371	5
3	25747	372	5
3	25813	373	5
3	25879	374	5
3	25955	375	5
3	26033	376	5
3	26115	377	5
3	26155	378	5
3	26223	379	5
3	26283	380	5
3	26345	381	5
3	26407	382	5
3	26459	383	5
3	26523	384	5
3	26581	385	5
3	26647	386	5
3	26719	387	5
3	26777	388	5
3	26835	389	5
3	26909	390	5
3	26967	391	5
3	27043	392	5
3	27111	393	5
3	27163	394	5
3	27233	395	5
3	27299	396	5
3	27369	397	5
3	27451	398	5
3	27511	399	5
3	27561	400	5
3	27645	401	5
3	27713	402	5
3	27765	403	5
3	27825	404	5
3	27899	405	5
3	27965	406	5
3	28041	407	5
3	28127	408	5
3	28201	409	5
3	28257	410	5
3	28345	411	5
3	28441	412	5
3	28505	413	5
3	28575	414	5
3	28629	415	5
3	28691	416	5
3	28741	417	5
3	28809	418	5
3	28891	419	5
3	28965	420	5
3	29037	421	5
3	29109	422	5
3	29195	423	5
3	29259	424	5
3	29319	425	5
3	29399	426	5
3	29475	427	5
3	29543	428	5
3	29619	429	5
3	29677	430	5
3	29757	431	5
3	29813	432	5
3	29881	433	5
3	29955	434	5
3	30019	435	5
3	30073	436	5
3	30125	437	5
3	30223	438	5
3	30283	439	5
3	30351	440	5
3	30409	441	5
3	30501	442	5
3	30579	443	5
3	30639	444	5
3	30709	445	5
3	30785	446	5
3	30841	447	5
3	30895	448	5
3	30969	449	5
3	31039	450	5
3	31101	451	5
3	31183	452	5
3	31237	453	5
3	31295	454	5
3	31377	455	5
3	31447	456	5
3	31495	457	5
3	31577	458	5
3	31643	459	5
3	31729	460	5
3	31807	461	5
3	31857	462	5
3	31935	463	5
3	32009	464	5
3	32079	465	5
3	32147	466	5
3	32219	467	5
3	32287	468	5
3	32349	469	5
3	32399	470	5
3	32461	471	5
3	32531	472	5
3	32599	473	5
3	32695	474	5
3	32761	475	5
3	32829	476	5
3	32907	477	5
3	32971	478	5
3	33029	479	5
3	33087	480	5
3	33153	481	5
3	33211	482	5
3	33283	483	5
3	33359	484	5
3	33425	485	5
3	33479	486	5
3	33551	487	5
3	33599	488	5
3	33643	489	5
3	33725	490	5
3	33817	491	5
3	33917	492	5
3	33973	493	5
3	34031	494	5
3	34077	495	5
3	34143	496	5
3	34219	497	5
3	34303	498	5
3	34353	499	5
3	34415	500	5
3	34499	501	5
3	34555	502	5
3	34627	503	5
3	34691	504	5
3	34757	505	5
3	34829	506	5
3	34901	507	5
3	34965	508	5
3	35053	509	5
3	35127	510	5
3	35205	511	5
3	35263	512	5
3	35325	513	5
3	35409	514	5
3	35509	515	5
3	35563	516	5
3	35623	517	5
3	35709	518	5
3	35795	519	5
3	35871	520	5
3	35915	521	5
3	35987	522	5
3	36039	523	5
3	36119	524	5
3	36183	525	5
3	36239	526	5
3	36335	527	5
3	36403	528	5
3	36477	529	5
3	36547	530	5
3	36609	531	5
3	36699	532	5
3	36775	533	5
3	36839	534	5
3	36909	535	5
3	36975	536	5
3	37033	537	5
3	37107	538	5
3	37183	539	5
3	37257	540	5
3	37331	541	5
3	37417	542	5
3	37501	543	5
3	37553	544	5
3	37625	545	5
3	37707	546	5
3	37811	547	5
3	37885	548	5
3	37961	549	5
3	38019	550	5
3	38081	551	5
3	38133	552	5
3	38193	553	5
3	38269	554	5
3	38337	555	5
3	38391	556	5
3	38457	557	5
3	38519	558	5
3	38613	559	5
3	38675	560	5
3	38727	561	5
3	38799	562	5
3	38861	563	5
3	38927	564	5
3	39001	565	5
3	39071	566	5
3	39133	567	5
3	39199	568	5
3	39277	569	5
3	39327	570	5
3	39413	571	5
3	39487	572	5
3	39553	573	5
3	39599	574	5
3	39659	575	5
3	39725	576	5
3	39779	577	5
3	39851	578	5
3	39919	579	5
3	39983	580	5
3	40057	581	5
3	40133	582	5
3	40213	583	5
3	40295	584	5
3	40361	585	5
3	40435	586	5
3	40535	587	5
3	40611	588	5
3	40675	589	5
3	40727	590	5
3	40795	591	5
3	40849	592	5
3	40921	593	5
3	40985	594	5
3	41053	595	5
3	41121	596	5
3	41171	597	5
3	41239	598	5
3	41307	599	5
3	41367	600	5
3	41445	601	5
3	41545	602	5
3	41627	603	5
3	41725	604	5
3	41799	605	5
3	41869	606	5
3	41921	607	5
3	41995	608	5
3	42067	609	5
3	42145	610	5
3	42227	611	5
3	42285	612	5
3	42337	613	5
3	42395	614	5
3	42491	615	5
3	42573	616	5
3	42657	617	5
3	42727	618	5
3	42789	619	5
3	42857	620	5
3	42925	621	5
3	42993	622	5
3	43063	623	5
3	43147	624	5
3	43211	625	5
3	43295	626	5
3	43379	627	5
3	43441	628	5
3	43495	629	5
3	43561	630	5
3	43669	631	5
3	43775	632	5
3	43849	633	5
3	43915	634	5
3	43981	635	5
3	44051	636	5
3	44111	637	5
3	44153	638	5
3	44199	639	5
3	44275	640	5
3	44349	641	5
3	44413	642	5
3	44485	643	5
3	44545	644	5
3	44617	645	5
3	44681	646	5
3	44745	647	5
3	44817	648	5
3	44899	649	5
3	44967	650	5
3	45031	651	5
3	45089	652	5
3	45145	653	5
3	45253	654	5
3	45339	655	5
3	45423	656	5
3	45487	657	5
3	45563	658	5
3	45641	659	5
3	45721	660	5
3	45795	661	5
3	45875	662	5
3	45949	663	5
3	46027	664	5
3	46109	665	5
3	46193	666	5
3	46281	667	5
3	46349	668	5
3	46421	669	5
3	46505	670	5
3	46569	671	5
3	46611	672	5
3	46691	673	5
3	46777	674	5
3	46841	675	5
3	46923	676	5
3	47009	677	5
3	47053	678	5
3	47123	679	5
3	47189	680	5
3	47261	681	5
3	47361	682	5
3	47441	683	5
3	47507	684	5
3	47563	685	5
3	47621	686	5
3	47677	687	5
3	47735	688	5
3	47817	689	5
3	47911	690	5
3	47975	691	5
3	48067	692	5
3	48137	693	5
3	48213	694	5
3	48283	695	5
3	48347	696	5
3	48407	697	5
3	48477	698	5
3	48547	699	5
3	48631	700	5
3	48719	701	5
3	48805	702	5
3	48873	703	5
3	48929	704	5
3	48975	705	5
3	49053	706	5
3	49125	707	5
3	49215	708	5
3	49293	709	5
3	49355	710	5
3	49433	711	5
3	49491	712	5
3	49573	713	5
3	49643	714	5
3	49701	715	5
3	49781	716	5
3	49849	717	5
3	49907	718	5
3	49965	719	5
3	50041	720	5
3	50117	721	5
3	50213	722	5
3	50273	723	5
3	50353	724	5
3	50427	725	5
3	50491	726	5
3	50559	727	5
3	50633	728	5
3	50699	729	5
3	50767	730	5
3	50827	731	5
3	50879	732	5
3	50941	733	5
3	51011	734	5
3	51095	735	5
3	51183	736	5
3	51265	737	5
3	51341	738	5
3	51417	739	5
3	51501	740	5
3	51557	741	5
3	51639	742	5
3	51741	743	5
3	51829	744	5
3	51895	745	5
3	51947	746	5
3	52033	747	5
3	52089	748	5
3	52149	749	5
3	52233	750	5
3	52297	751	5
3	52371	752	5
3	52433	753	5
3	52511	754	5
3	52585	755	5
3	52665	756	5
3	52733	757	5
3	52809	758	5
3	52873	759	5
3	52923	760	5
3	52995	761	5
3	53087	762	5
3	53157	763	5
3	53233	764	5
3	53299	765	5
3	53385	766	5
3	53465	767	5
3	53529	768	5
3	53601	769	5
3	53669	770	5
3	53745	771	5
3	53811	772	5
3	53893	773	5
3	53969	774	5
3	54027	775	5
3	54083	776	5
3	54157	777	5
3	54235	778	5
3	54309	779	5
3	54375	780	5
3	54459	781	5
3	54527	782	5
3	54597	783	5
3	54667	784	5
3	54757	785	5
3	54843	786	5
3	54903	787	5
3	54973	788	5
3	55033	789	5
3	55113	790	5
3	55185	791	5
3	55241	792	5
3	55325	793	5
3	55383	794	5
3	55477	795	5
3	55559	796	5
3	55641	797	5
3	55723	798	5
3	55801	799	5
3	55901	800	5
3	55971	801	5
3	56043	802	5
3	56121	803	5
3	56187	804	5
3	56281	805	5
3	56363	806	5
3	56445	807	5
3	56529	808	5
3	56599	809	5
3	56679	810	5
3	56733	811	5
3	56791	812	5
3	56861	813	5
3	56933	814	5
3	57005	815	5
3	57059	816	5
3	57111	817	5
3	57187	818	5
3	57233	819	5
3	57321	820	5
3	57373	821	5
3	57449	822	5
3	57493	823	5
3	57549	824	5
3	57621	825	5
3	57681	826	5
3	57767	827	5
3	57835	828	5
3	57905	829	5
3	57987	830	5
3	58065	831	5
3	58119	832	5
3	58183	833	5
3	58241	834	5
3	58301	835	5
3	58385	836	5
3	58471	837	5
3	58531	838	5
3	58617	839	5
3	58683	840	5
3	58747	841	5
3	58821	842	5
3	58907	843	5
3	58983	844	5
3	59049	845	5
3	59117	846	5
3	59185	847	5
3	59247	848	5
3	59297	849	5
3	59365	850	5
3	59411	851	5
3	59475	852	5
3	59533	853	5
3	59577	854	5
3	59641	855	5
3	59725	856	5
3	59779	857	5
3	59865	858	5
3	59941	859	5
3	59993	860	5
3	60061	861	5
3	60131	862	5
3	60189	863	5
3	60251	864	5
3	60301	865	5
3	60387	866	5
3	60457	867	5
3	60527	868	5
3	60601	869	5
3	60675	870	5
3	60739	871	5
3	60803	872	5
3	60889	873	5
3	60953	874	5
3	61035	875	5
3	61109	876	5
3	61167	877	5
3	61229	878	5
3	61285	879	5
3	61361	880	5
3	61441	881	5
3	61521	882	5
3	61579	883	5
3	61643	884	5
3	61705	885	5
3	61747	886	5
3	61817	887	5
3	61895	888	5
3	61969	889	5
3	62055	890	5
3	62133	891	5
3	62183	892	5
3	62235	893	5
3	62293	894	5
3	62343	895	5
3	62407	896	5
3	62461	897	5
3	62543	898	5
3	62619	899	5
3	62691	900	5
3	62779	901	5
3	62839	902	5
3	62893	903	5
3	62975	904	5
3	63041	905	5
3	63099	906	5
3	63189	907	5
3	63269	908	5
3	63331	909	5
3	63405	910	5
3	63463	911	5
3	63535	912	5
3	63585	913	5
3	63635	914	5
3	63707	915	5
3	63775	916	5
3	63857	917	5
3	63927	918	5
3	63993	919	5
3	64069	920	5
3	64127	921	5
3	64187	922	5
3	64261	923	5
3	64321	924	5
3	64407	925	5
3	64503	926	5
3	64567	927	5
3	64639	928	5
3	64701	929	5
3	64775	930	5
3	64831	931	5
3	64913	932	5
3	64969	933	5
3	65035	934	5
3	65121	935	5
3	65185	936	5
3	65241	937	5
3	65297	938	5
3	65385	939	5
3	65451	940	5
3	65533	941	5
3	65597	942	5
3	65667	943	5
3	65731	944	5
3	65789	945	5
3	65859	946	5
3	65921	947	5
3	66003	948	5
3	66057	949	5
3	66111	950	5
3	66177	951	5
3	66235	952	5
3	66283	953	5
3	66343	954	5
3	66403	955	5
3	66465	956	5
3	66551	957	5
3	66623	958	5
3	66705	959	5
3	66807	960	5
3	66893	961	5
3	66951	962	5
3	67029	963	5
3	67101	964	5
3	67165	965	5
3	67227	966	5
3	67289	967	5
3	67329	968	5
3	67407	969	5
3	67461	970	5
3	67523	971	5
3	67609	972	5
3	67669	973	5
3	67725	974	5
3	67791	975	5
3	67863	976	5
3	67929	977	5
3	67983	978	5
3	68037	979	5
3	68121	980	5
3	68219	981	5
3	68301	982	5
3	68373	983	5
3	68451	984	5
3	68523	985	5
3	68597	986	5
3	68667	987	5
3	68739	988	5
3	68817	989	5
3	68883	990	5
3	68945	991	5
3	69047	992	5
3	69107	993	5
3	69163	994	5
3	69231	995	5
3	69323	996	5
3	69387	997	5
3	69457	998	5
3	69539	999	5
3	69617	1000	5
3	69693	1001	5
3	69745	1002	5
3	69837	1003	5
3	69913	1004	5
3	69973	1005	5
3	70027	1006	5
3	70113	1007	5
3	70213	1008	5
3	70297	1009	5
3	70341	1010	5
3	70391	1011	5
3	70463	1012	5
3	70517	1013	5
3	70581	1014	5
3	70643	1015	5
3	70711	1016	5
3	70779	1017	5
3	70863	1018	5
3	70937	1019	5
3	70987	1020	5
3	71045	1021	5
3	71117	1022	5
3	71197	1023	5
3	71271	1024	5
3	71357	1025	5
3	71439	1026	5
3	71519	1027	5
3	71589	1028	5
3	71669	1029	5
3	71739	1030	5
3	71807	1031	5
3	71891	1032	5
3	71953	1033	5
3	72027	1034	5
3	72095	1035	5
3	72159	1036	5
3	72221	1037	5
3	72291	1038	5
3	72363	1039	5
3	72441	1040	5
3	72503	1041	5
3	72589	1042	5
3	72687	1043	5
3	72765	1044	5
3	72837	1045	5
3	72907	1046	5
3	72975	1047	5
3	73049	1048	5
3	73117	1049	5
3	73197	1050	5
3	73279	1051	5
3	73349	1052	5
3	73405	1053	5
3	73467	1054	5
3	73533	1055	5
3	73625	1056	5
3	73681	1057	5
3	73749	1058	5
3	73819	1059	5
3	73899	1060	5
3	73969	1061	5
3	74049	1062	5
3	74143	1063	5
3	74211	1064	5
3	74271	1065	5
3	74355	1066	5
3	74433	1067	5
3	74531	1068	5
3	74617	1069	5
3	74689	1070	5
3	74757	1071	5
3	74837	1072	5
3	74913	1073	5
3	74999	1074	5
3	75063	1075	5
3	75133	1076	5
3	75195	1077	5
3	75287	1078	5
3	75373	1079	5
3	75443	1080	5
3	75489	1081	5
3	75555	1082	5
3	75617	1083	5
3	75673	1084	5
3	75725	1085	5
3	75811	1086	5
3	75899	1087	5
3	75967	1088	5
3	76053	1089	5
3	76151	1090	5
3	76229	1091	5
3	76301	1092	5
3	76377	1093	5
3	76451	1094	5
3	76555	1095	5
3	76613	1096	5
3	76679	1097	5
3	76767	1098	5
3	76849	1099	5
3	76925	1100	5
3	77005	1101	5
3	77065	1102	5
3	77155	1103	5
3	77247	1104	5
3	77325	1105	5
3	77385	1106	5
3	77443	1107	5
3	77521	1108	5
3	77609	1109	5
3	77689	1110	5
3	77765	1111	5
3	77843	1112	5
3	77919	1113	5
3	77995	1114	5
3	78067	1115	5
3	78141	1116	5
3	78201	1117	5
3	78285	1118	5
3	78373	1119	5
3	78465	1120	5
3	78527	1121	5
3	78615	1122	5
3	78703	1123	5
3	78767	1124	5
3	78839	1125	5
3	78903	1126	5
3	78965	1127	5
3	79007	1128	5
3	79069	1129	5
3	79125	1130	5
3	79177	1131	5
3	79273	1132	5
3	79331	1133	5
3	79409	1134	5
3	79493	1135	5
3	79547	1136	5
3	79635	1137	5
3	79699	1138	5
3	79771	1139	5
3	79827	1140	5
3	79871	1141	5
3	79947	1142	5
3	80025	1143	5
3	80103	1144	5
3	80195	1145	5
3	80257	1146	5
3	80315	1147	5
3	80371	1148	5
3	80421	1149	5
3	80465	1150	5
3	80509	1151	5
3	80575	1152	5
3	80647	1153	5
3	80719	1154	5
3	80803	1155	5
3	80905	1156	5
3	80995	1157	5
3	81063	1158	5
3	81155	1159	5
3	81231	1160	5
3	81319	1161	5
3	81397	1162	5
3	81461	1163	5
3	81537	1164	5
3	81587	1165	5
3	81655	1166	5
3	81725	1167	5
3	81783	1168	5
3	81855	1169	5
3	81927	1170	5
3	81963	1171	5
3	82015	1172	5
3	82085	1173	5
3	82157	1174	5
3	82227	1175	5
[...]
6	87273	1246.8	201.617685922
6	87342	1247.85	58.684157937
6	87360	1248.05	130.601842379
6	87382	1248.25	78.538343443
6	87397	1248.4	196.141241019
6	87436	1249.25	39.272136137
6	87464	1249.75	37.781603713
6	87476	1249.95	35.760346421
6	87515	1250.4	29.853852927
6	87538	1250.75	28.237981723
6	87549	1250.9	97.826127312
6	87561	1251	70.90618243
6	87594	1251.45	197.044420741
6	87605	1251.6	228.356677727
6	87616	1251.75	41.812066354
6	87626	1251.85	18.076788524
6	87698	1253.25	17.723098479
6	87703	1253.3	36.254776836
6	87726	1253.65	0.314169683
6	87731	1253.7	32.174967018
6	87736	1253.75	23.01096015
6	87743	1253.8	33.366441251
6	87746	1253.85	73.372508853
6	87760	1254.05	75.003246351
6	87765	1254.1	29.134843858
6	87771	1254.2	27.911027596
6	87782	1254.35	2.101619036
6	87791	1254.5	18.333077409
6	87796	1254.55	64.384072254
6	87804	1254.65	141.44103725
6	87820	1254.95	60.68982714
6	87836	1255.25	8.367972755
6	87839	1255.3	50.197429862
6	87915	1256.8	21.18611116
6	87930	1256.95	143.707892652
6	87950	1257.25	37.753386071
6	87957	1257.3	15.707269285
6	87969	1257.4	112.233606966
6	87972	1257.45	68.29761341
6	87975	1257.5	110.022579339
6	87995	1257.9	17.705336905
6	88000	1257.95	11.661786349
6	88010	1258.15	36.489118433
6	88029	1258.5	84.003173235
6	88046	1258.65	116.800316697
6	88105	1259.4	42.101151815
6	88121	1259.6	102.652739239
6	88126	1259.65	19.196234242
6	88145	1259.9	87.420618734
6	88160	1260.05	114.405074597
6	88170	1260.15	24.94191509
6	88175	1260.2	16.16730714
6	88180	1260.25	32.593481261
6	88189	1260.5	9.874552735
6	88219	1260.8	203.754282177
6	88263	1261.3	149.605043433
6	88288	1261.55	358.931859385
6	88309	1261.8	40.555627828
6	88340	1262.25	1.365763795
6	88350	1262.55	36.054018625
6	88356	1262.65	23.902834464
6	88362	1262.75	34.331055569
6	88379	1263.1	23.100616494
6	88392	1263.35	15.285584402
6	88399	1263.5	16.698411548
6	88416	1263.65	120.488933491
6	88421	1263.7	81.184080527
6	88426	1263.75	77.014803714
6	88429	1263.8	53.223014409
6	88455	1264.1	6.91229106
6	88463	1264.2	65.109952155
6	88468	1264.25	30.166200473
6	88473	1264.3	5.966013897
6	88483	1264.6	21.98516354
6	88494	1264.75	46.200401282
6	88500	1264.85	19.181573238
6	88516	1265.15	42.606083878
6	88529	1265.4	24.502446094
6	88545	1265.6	51.015852269
6	88560	1265.75	132.166871633
6	88574	1265.85	83.299022097
6	88579	1265.9	76.845491977
6	88582	1265.95	123.431004396
6	88592	1266.05	188.410531175
6	88615	1266.4	27.363996578
6	88620	1266.45	10.243669655
6	88640	1266.65	32.131132298
6	88653	1266.9	26.206764739
6	88661	1267	44.208772691
6	88669	1267.2	19.183533037
6	88699	1267.5	290.346127441
6	88795	1268.9	37.706796683
6	88813	1269.1	156.020637514
6	88816	1269.15	161.837423041
6	88836	1269.45	37.879469369
6	88846	1269.65	30.186235074
6	88852	1269.75	0.544972104
6	88858	1269.85	43.32029775
6	88880	1270.05	52.789881452
6	88925	1270.7	35.690826328
6	88931	1270.8	28.169418812
6	88946	1271.05	75.91287894
6	88959	1271.3	52.931798622
6	89000	1271.95	12.968352885
6	89023	1272.4	33.151993861
6	89031	1272.5	38.979004703
6	89046	1272.65	176.273060428
6	89049	1272.7	110.59977571
6	89064	1272.95	49.760684439
6	89076	1273.15	25.948956521
6	89091	1273.5	32.683126416
6	89107	1273.7	57.828559436
6	89129	1274	94.254839343
6	89149	1274.2	228.676506277
6	89152	1274.25	83.489495999
6	89183	1274.7	41.124291483
6	89226	1275.25	19.417559617
6	89241	1275.4	76.319568301
6	89267	1275.7	113.303113452
6	89297	1276	65.575061798
6	89310	1276.15	14.375181395
6	89356	1276.75	12.578759793
6	89374	1276.95	118.420063933
6	89386	1277.05	47.906756285
6	89398	1277.25	30.876937181
6	89401	1277.3	69.7689135
6	89406	1277.35	100.521621797
6	89409	1277.4	63.293450263
6	89430	1277.65	36.995070529
6	89436	1277.75	19.969834791
6	89452	1277.95	28.329587948
6	89511	1278.6	40.003684707
6	89523	1278.8	42.051581039
6	89528	1278.85	5.626890204
6	89553	1279.2	16.12228442
6	89567	1279.5	1.096524525
6	89587	1279.7	129.095434579
6	89593	1279.8	33.940530604
6	89615	1280.1	11.463047589
6	89645	1280.6	62.877349786
6	89648	1280.65	66.135977013
6	89683	1281.1	7.494148662
6	89703	1281.5	29.054959027
6	89712	1281.75	1.210335198
6	89749	1282.5	16.832568958
6	89759	1282.6	22.947212537
6	89818	1283.25	43.549028716
6	89840	1283.55	0.691498025
6	89849	1283.8	43.075209022
6	89859	1284	32.76594748
6	89870	1284.15	34.670648621
6	89892	1284.55	84.049335838
6	89909	1284.7	15.705101435
6	89933	1285	16.275854695
6	89960	1285.25	22.244806767
6	89968	1285.35	48.855723432
6	89980	1285.45	92.834658929
6	89988	1285.55	186.424441026
6	90014	1285.85	3.771177294
6	90019	1285.9	1.583366004
6	90045	1286.3	9.853274263
6	90061	1286.5	45.751333845
6	90078	1286.95	17.631069971
6	90119	1287.5	84.248567639
6	90135	1287.7	95.60881437
6	90138	1287.75	88.663054403
6	90143	1287.8	100.302065826
6	90146	1287.85	99.351195292
6	90162	1288.35	31.761636098
6	90175	1288.5	46.375867049
6	90185	1288.6	115.286785114
6	90188	1288.65	83.425011687
6	90226	1289.25	0.670229534
6	90247	1289.5	143.112311408
6	90262	1289.65	27.248550218
6	90280	1289.85	19.908627058
6	90283	1289.9	64.609740362
6	90296	1290.05	9.953015323
6	90314	1290.35	103.652187102
6	90325	1290.5	1.923958221
6	90365	1290.8	179.877474019
6	90394	1291.15	527.126573575
6	90415	1291.4	606.091500455
6	90421	1291.5	705.130563118
6	90426	1291.55	186.36341634
6	90429	1291.6	99.957545376
6	90436	1291.75	2.29590578
6	90441	1291.8	45.361413946
6	90457	1292.1	4.92216334
6	90462	1292.15	43.396352481
6	90482	1292.55	92.454165798
6	90494	1292.75	13.287427421
6	90510	1293.15	25.068282331
6	90530	1293.35	221.833987743
6	90533	1293.4	138.43266184
6	90541	1293.5	49.39688399
6	90549	1293.6	147.261480424
6	90554	1293.65	16.719040764
6	90567	1294	38.928230076
6	90596	1294.35	181.28740711
6	90626	1295.05	5.634077634
6	90648	1295.35	2.49491563
6	90654	1295.45	11.021734743
6	90670	1295.65	96.874813294
6	90685	1295.8	178.946498633
6	90693	1295.9	253.053871454
6	90696	1295.95	97.796240378
6	90707	1296.1	33.660848167
6	90725	1296.3	229.474541817
6	90751	1296.5	37.851876053
6	90770	1296.75	35.147966531
6	90776	1296.85	39.751650797
6	90786	1297.05	49.425923542
6	90797	1297.2	10.932560291
6	90818	1297.65	52.939365205
6	90858	1298.05	97.230690617
6	90864	1298.15	175.618366211
6	90867	1298.2	205.406550187
6	90872	1298.25	37.778042856
6	90877	1298.3	35.680798912
6	90967	1299.7	39.679201651
6	90997	1300.1	61.061533871
6	91029	1300.6	43.968150426
6	91049	1300.8	128.487226956
6	91057	1300.9	141.402156508
6	91062	1300.95	35.273901996
6	91081	1301.1	57.362528064
6	91099	1301.3	20.329320163
6	91124	1301.55	227.184832613
6	91158	1302.05	53.629697979
6	91202	1302.85	15.309159411
6	91229	1303.1	91.232901508
6	91249	1303.4	14.80167982
6	91255	1303.5	34.43698212
6	91305	1304.6	28.003694837
6	91308	1304.65	57.932582991
6	91313	1304.7	44.74288159
6	91334	1305.05	14.424902175
6	91339	1305.1	0.658981421
6	91354	1305.25	113.753983234
6	91365	1305.4	57.006049846
6	91370	1305.45	36.638417886
6	91383	1305.7	26.266555682
6	91393	1305.8	34.498057456
6	91398	1305.85	18.064923203
6	91435	1306.7	78.44993484
6	91440	1306.75	97.25199883
6	91450	1306.85	116.582038951
6	91453	1306.9	53.409943737
6	91471	1307.1	43.713149132
6	91494	1307.45	8.604593806
6	91527	1307.8	40.539322143
6	91557	1308.3	5.56623889
6	91588	1308.65	0.794350935
6	91601	1308.9	41.692103255
6	91618	1309.05	84.594949712
6	91639	1309.3	22.342833068
6	91678	1309.85	20.960586763
6	91684	1309.95	26.548812571
6	91716	1310.45	8.278908079
6	91734	1310.65	38.078116642
6	91749	1310.8	50.345756952
6	91777	1311.2	89.327369044
6	91804	1311.75	35.580801988
6	91820	1312.05	13.82855266
6	91837	1312.3	14.537431463
6	91853	1312.5	32.629866794
6	91882	1312.75	233.552710328
6	91888	1312.85	141.348370872
6	91897	1313	31.510270848
6	91916	1313.35	82.136570968
6	91919	1313.4	104.80622667
6	91922	1313.45	148.660322872
6	91939	1313.6	80.91770097
6	92000	1314.45	49.646170929
6	92013	1314.6	191.213375642
6	92016	1314.65	179.690119226
6	92037	1314.9	8.494703598
6	92062	1315.45	48.075612881
6	92087	1315.9	14.332118474
6	92109	1316.1	134.280218908
6	92124	1316.25	280.881825928
6	92127	1316.3	282.344115757
6	92142	1316.45	206.577974876
6	92152	1316.55	162.051433423
6	92155	1316.6	112.313203872
6	92160	1316.65	40.829134713
6	92171	1316.8	65.898773265
6	92176	1316.85	31.950024199
6	92192	1317.35	44.072708376
6	92211	1317.7	32.708256638
6	92222	1317.85	33.689758793
6	92237	1318	99.246622163
6	92250	1318.15	181.181025926
6	92260	1318.25	57.716727667
6	92276	1318.45	28.849058287
6	92284	1318.55	120.338204142
6	92287	1318.6	102.720044115
6	92339	1319.3	11.061381428
6	92346	1319.45	37.320751518
6	92359	1319.9	20.741224893
6	92364	1319.95	21.870915355
6	92386	1320.35	7.560396025
6	92392	1320.45	13.698428038
6	92402	1320.55	73.87597445
6	92422	1321.05	23.103948851
6	92431	1321.3	4.406090789
6	92458	1321.55	100.570923465
6	92461	1321.6	88.523442003
6	92477	1321.8	77.21050033
6	92504	1322.15	112.050295682
6	92517	1322.3	202.133201167
6	92535	1322.5	64.790756277
6	92538	1322.55	112.339150132
6	92551	1322.8	37.107072431
6	92571	1323.2	97.625563392
6	92591	1323.4	269.695273005
6	92594	1323.45	167.1907111
6	92640	1324.15	14.593777218
6	92656	1324.35	20.278131841
6	92664	1324.45	116.520677919
6	92682	1324.65	130.854349615
6	92710	1324.95	65.751696256
6	92724	1325.15	3.760226954
6	92758	1325.65	61.717215606
6	92763	1325.7	25.866045908
6	92774	1325.85	25.192347139
6	92805	1326.3	14.37153758
6	92842	1326.75	84.303591978
6	92848	1326.85	108.762531219
6	92858	1326.95	37.763397852
6	92868	1327.15	35.082734985
6	92873	1327.2	24.713060506
6	92885	1327.4	35.976592258
6	92890	1327.45	32.337296285
6	92900	1327.55	72.850582153
6	92928	1327.85	3.482355087
6	92944	1328.05	42.54306946
6	92959	1328.4	74.904849734
6	92989	1328.9	95.536178097
6	92994	1328.95	15.180089388
6	93019	1329.2	5.518808204
6	93088	1330.25	12.402881224
6	93120	1330.85	24.830831462
6	93130	1330.95	43.876467933
6	93160	1331.25	78.625962357
6	93175	1331.4	121.413729385
6	93184	1331.55	35.871528586
6	93202	1331.75	18.955917024
6	93212	1331.85	116.239261752
6	93232	1332.05	279.368528557
6	93259	1332.3	57.754827847
6	93279	1332.5	138.177144636
6	93302	1332.95	2.653047144
6	93315	1333.1	27.164269412
6	93322	1333.25	2.195589056
6	93337	1333.6	14.500544712
6	93342	1333.65	14.860123042
6	93387	1334.4	9.933624774
6	93393	1334.5	6.827225566
6	93435	1334.8	293.763198207
6	93470	1335.15	605.17171298
6	93496	1335.45	899.647833291
6	93521	1335.7	1001.522960433
6	93534	1335.85	1091.40855781
6	93537	1335.9	589.875778955
6	93540	1335.95	287.519242576
6	93552	1336.05	2.307388837
6	93579	1336.3	242.206567403
6	93599	1336.5	127.151334536
6	93602	1336.55	133.598421552
6	93614	1336.75	1.467398858
6	93619	1336.8	23.642289763
6	93674	1337.75	25.119759609
6	93694	1338.15	3.435288239
6	93709	1338.3	77.622862976
6	93725	1338.5	50.257869329
6	93751	1338.9	64.202833839
6	93761	1339	51.474437353
6	93779	1339.3	19.592162178
6	93785	1339.4	30.398011533
6	93805	1339.7	57.478079347
6	93818	1339.85	22.145540552
6	93900	1341.15	28.185123797
6	93919	1341.4	97.160002836
6	93934	1341.55	75.218849863
6	93988	1342.75	60.043744593
6	94020	1343.25	134.944666309
6	94039	1343.4	146.345350821
6	94050	1343.55	288.073117734
6	94063	1343.7	329.81082777
6	94090	1343.95	35.74455479
6	94144	1344.55	13.427460837
6	94152	1344.65	5.37681863
6	94162	1344.95	14.793238127
6	94182	1345.25	31.556786019
6	94198	1345.45	90.164031548
6	94225	1345.8	91.824187191
6	94272	1346.55	80.913333675
6	94289	1346.7	176.285084804
6	94300	1346.85	279.08073113
6	94310	1347.05	34.808946882
6	94318	1347.25	44.837813611
6	94324	1347.35	21.089837328
6	94342	1347.65	14.211853201
6	94358	1347.85	56.641271605
6	94389	1348.3	8.580009243
6	94394	1348.35	43.570638529
6	94425	1348.7	140.01649403
6	94447	1349.1	12.485684478
6	94453	1349.2	25.463845779
6	94468	1349.55	11.508993082
6	94499	1350.2	17.697981319
6	94508	1350.45	46.988589125
6	94575	1351.5	37.716180075
6	94585	1351.6	87.058092576
6	94614	1351.85	139.974034003
6	94629	1352	163.015121255
6	94632	1352.05	149.452370349
6	94663	1352.6	80.875822321
6	94705	1353	65.456672057
6	94719	1353.2	256.152201515
6	94722	1353.25	181.334321859
6	94753	1353.8	95.553952588
6	94764	1353.95	25.325727562
6	94830	1354.95	35.434113407
6	94837	1355	36.752214731
6	94848	1355.15	54.215754699
6	94864	1355.45	59.951909813
6	94872	1355.55	42.97355207
6	94877	1355.6	42.862780933
6	94882	1355.65	38.566580881
6	94904	1355.95	28.120721322
6	94927	1356.3	99.475358622
6	94935	1356.4	107.757445997
6	94950	1356.55	94.673343232
6	94963	1356.7	173.683409814
6	94978	1356.85	118.802878625
6	95049	1358	13.573811271
6	95059	1358.2	6.686978375
6	95085	1358.5	186.437539927
6	95104	1358.65	304.386392477
6	95119	1358.8	180.163608792
6	95122	1358.85	208.598220438
6	95130	1358.95	302.740357078
6	95135	1359	258.305700822
6	95138	1359.05	276.459369871
6	95150	1359.15	95.572125011
6	95165	1359.3	164.54159589
6	95168	1359.35	111.449684438
6	95175	1359.5	32.570791423
6	95187	1359.6	87.053407504
6	95190	1359.65	114.167231794
6	95198	1359.75	25.47049074
6	95211	1359.9	175.234606035
6	95223	1360	59.481175717
6	95245	1360.3	76.377432423
6	95255	1360.6	46.142584379
6	95273	1360.9	6.477029095
6	95288	1361.15	38.765567641
6	95309	1361.4	131.670137176
6	95317	1361.6	38.455592115
6	95333	1361.9	42.687397018
6	95343	1362	137.810255242
6	95369	1362.2	177.674270521
6	95372	1362.25	217.090934024
6	95386	1362.35	305.252459304
6	95389	1362.4	240.118617723
6	95392	1362.45	154.628600229
6	95397	1362.5	190.042075037
6	95412	1362.65	307.278325161
6	95415	1362.7	217.390565902
6	95418	1362.75	206.838749495
6	95431	1362.9	94.236562982
6	95436	1362.95	110.338135383
6	95441	1363	87.731452273
6	95475	1363.8	5.081935013
6	95487	1364	37.87699771
6	95497	1364.1	63.126737248
6	95503	1364.2	38.695449406
6	95542	1364.95	11.625817094
6	95558	1365.15	32.076078098
6	95561	1365.2	57.905295162
6	95577	1365.6	13.641101764
6	95589	1365.8	37.688002736
6	95636	1366.15	146.211720057
6	95657	1366.4	293.756795286
6	95670	1366.55	310.782892795
6	95693	1366.8	11.417476066
6	95696	1366.85	54.251786786
6	95721	1367.2	5.218290138
6	95731	1367.3	89.706650695
6	95753	1367.7	29.690385274
6	95766	1367.85	170.524337277
6	95781	1368.1	34.973462851
6	95797	1368.3	36.402778074
6	95807	1368.4	50.802074883
6	95831	1368.8	13.452060739
6	95846	1369.05	77.014628091
6	95866	1369.35	74.048549281
6	95883	1369.5	70.100507996
6	95904	1369.75	8.366953224
6	95909	1369.8	11.344230434
6	95944	1370.45	98.958997676
6	95964	1370.65	52.52194255
6	95980	1370.95	94.359253774
6	96047	1371.9	40.080132315
6	96065	1372.1	69.598009855
6	96079	1372.3	62.579592266
6	96082	1372.35	111.107135791
6	96087	1372.4	6.547660953
6	96118	1372.75	188.960784514
6	96130	1372.95	288.948292251
6	96143	1373.1	75.759704947
6	96148	1373.15	12.250265012
6	96159	1373.3	11.561706884
6	96171	1373.4	55.785438554
6	96179	1373.5	153.9980563
6	96237	1374.3	29.056283142
6	96242	1374.35	13.675888456
6	96253	1374.5	76.175181294
6	96290	1375.05	0.438000038
6	96317	1375.4	126.148259237
6	96330	1375.55	147.25786199
6	96350	1375.75	323.42497198
6	96355	1375.8	113.85069464
6	96358	1375.85	95.890080959
6	96406	1376.35	28.580325147
6	96417	1376.5	15.358020498
6	96427	1376.8	29.395563053
6	96448	1377.05	125.608360553
6	96456	1377.15	171.406384109
6	96466	1377.25	64.625429387
6	96488	1377.55	21.043896832
6	96499	1377.7	167.269509677
6	96514	1377.95	98.692089502
6	96529	1378.1	101.199234636
6	96542	1378.35	8.833271647
6	96554	1378.55	17.591998091
6	96598	1379.35	27.38617757
6	96607	1379.5	1.548894674
6	96617	1379.7	23.743933847
6	96622	1379.75	66.382648705
6	96625	1379.8	56.477521342
6	96652	1380.15	75.99678998
6	96655	1380.2	79.10471362
6	96671	1380.4	103.683183498
6	96685	1380.7	75.831969148
6	96714	1381.25	23.831738346
6	96771	1382.2	41.28450391
6	96792	1382.45	79.156352976
6	96806	1382.75	23.986145848
6	96832	1383.15	35.371206716
6	96838	1383.25	107.409917436
6	96844	1383.35	12.371465308
6	96870	1383.65	12.769931003
6	96891	1383.9	17.57362715
6	96906	1384.05	56.507397586
6	96973	1384.9	12.335140895
6	97010	1385.25	46.654505697
6	97031	1385.5	63.487156222
6	97039	1385.6	143.746086182
6	97042	1385.65	91.283225684
6	97048	1385.75	20.464330809
6	97053	1385.8	8.608692228
6	97096	1386.25	65.469510281
6	97102	1386.35	145.336128317
6	97127	1386.9	87.01237418
6	97130	1386.95	62.138167254
6	97144	1387.15	40.950802399
6	97159	1387.3	113.040171866
6	97176	1387.55	7.950129718
6	97181	1387.6	43.710879972
6	97202	1387.95	15.969995045
6	97212	1388.05	98.13361018
6	97257	1388.6	13.586377526
6	97260	1388.65	60.352921412
6	97267	1388.8	39.632777198
6	97286	1388.95	90.777556513
6	97291	1389	83.404180794
6	97294	1389.05	109.492041911
6	97320	1389.55	3.167292457
6	97333	1389.8	35.95233082
6	97343	1389.9	28.778133088
6	97385	1390.5	8.7561923
6	97402	1390.65	120.774693283
6	97405	1390.7	74.716749723
6	97415	1390.8	65.976458735
6	97435	1391	49.142244031
6	97470	1391.35	68.85287703
6	97478	1391.45	67.090852759
6	97503	1391.9	29.764946863
6	97523	1392.2	29.659155739
6	97536	1392.35	89.446570481
6	97566	1392.65	130.16033753
6	97586	1392.95	30.552994785
6	97602	1393.15	74.65212226
6	97625	1393.4	4.316296704
6	97640	1393.75	54.534039176
6	97673	1394.3	61.466540356
6	97705	1394.8	76.37254225
6	97734	1395.05	163.780174974
6	97737	1395.1	182.61566826
6	97750	1395.25	225.876863271
6	97771	1395.5	4.630270435
6	97791	1395.9	21.481024164
6	97812	1396.15	122.823209239
6	97825	1396.3	204.203864194
6	97837	1396.5	88.513429108
6	97851	1396.7	44.221275445
6	97854	1396.75	91.683847134
6	97878	1397.05	19.69937211
6	97897	1397.4	29.588331689
6	97910	1397.65	10.380103172
6	97917	1397.8	34.745561399
6	97929	1397.9	95.222640936
6	97939	1398	160.999298924
6	97977	1398.7	49.717191053
6	98007	1399.1	172.435877106
6	98045	1399.8	90.363442037
6	98086	1400.25	4.261525224
6	98094	1400.35	20.544528478
6	98114	1400.65	47.280955445
6	98117	1400.7	71.759133133
6	98122	1400.75	30.828119371
6	98133	1400.9	71.480377072
6	98159	1401.2	5.371890446
6	98198	1401.65	6.407957933
6	98220	1401.95	31.481272132
6	98232	1402.05	28.927344629
6	98254	1402.25	147.392936275
6	98265	1402.4	287.158323476
6	98275	1402.5	279.456996681
6	98278	1402.55	86.956554446
6	98285	1402.6	22.16282389
6	98298	1402.75	167.664739217
6	98316	1403.15	30.423292164
6	98328	1403.35	45.290180222
6	98336	1403.55	23.893777243
6	98341	1403.6	37.222993852
6	98408	1404.45	97.868431503
6	98419	1404.6	29.89466821
6	98462	1405.25	1.472014259
6	98467	1405.3	35.247883551
6	98473	1405.4	3.215704301
6	98478	1405.45	20.313079546
6	98489	1405.6	18.392999394
6	98532	1406.45	31.664699324
6	98561	1406.8	198.658692062
6	98574	1406.95	87.71836642
6	98581	1407	35.475331542
6	98587	1407.1	7.467418731
6	98618	1407.45	87.322717794
6	98631	1407.6	26.115541851
6	98642	1407.75	140.948741915
6	98669	1408.1	63.934108932
6	98678	1408.35	24.728298019
6	98721	1409.4	3.382816953
6	98746	1409.85	111.294040099
6	98761	1410	237.96789254
6	98776	1410.15	332.584761024
6	98783	1410.2	61.886730228
6	98786	1410.25	59.262908757
6	98791	1410.3	106.386526742
6	98814	1410.55	298.310899427
6	98827	1410.8	42.704793409
6	98858	1411.25	30.894938852
6	98874	1411.45	9.035345295
6	98894	1411.65	23.090777421
6	98926	1412.05	18.486027051
6	98956	1412.35	39.049662135
6	98978	1412.75	36.289754383
6	99001	1413.1	89.605543071
6	99028	1413.35	130.975720979
6	99039	1413.5	237.941996792
6	99064	1413.75	148.402608176
6	99072	1413.85	119.251688614
6	99097	1414.1	360.292869943
6	99125	1414.4	76.710696873
6	99133	1414.5	79.021554844
6	99161	1415	11.76877546
6	99182	1415.25	21.001414843
6	99198	1415.45	127.610873782
6	99204	1415.55	41.593943376
6	99220	1415.75	8.513351352
6	99244	1416.05	32.839259101
6	99269	1416.3	11.767048555
6	99304	1416.75	90.167741635
6	99334	1417.05	132.405018125
6	99368	1417.35	370.393311809
6	99400	1417.65	406.294970129
6	99436	1417.95	663.67046842
6	99456	1418.15	565.716372958
6	99472	1418.35	699.812706896
6	99485	1418.5	556.775757468
6	99520	1418.95	28.82066867
6	99525	1419	56.839878805
6	99530	1419.05	32.356888907
6	99555	1419.4	125.516703508
6	99580	1419.65	66.776408353
6	99593	1419.8	18.30910146

